<?xml version="1.0" encoding="UTF-8"?>

<!-- generated on 2022-10-16 19:21:03 by Eclipse SUMO GUI Version 1.14.1
-->

<configuration xmlns:xsi="http://www.w3.org/2001/XMLSchema-instance" xsi:noNamespaceSchemaLocation="http://sumo.dlr.de/xsd/sumoConfiguration.xsd">

    <input>
        <net-file value="002_new.net.xml"/>
        <route-files value="002_new.rou.xml"/>
        <additional-files value="002_new.xml"/>
    </input>
    
</configuration>
