<?xml version="1.0" encoding="UTF-8"?>

<!-- generated on 2022-10-28 00:37:56 by Eclipse SUMO netedit Version 1.14.1
<configuration xmlns:xsi="http://www.w3.org/2001/XMLSchema-instance" xsi:noNamespaceSchemaLocation="http://sumo.dlr.de/xsd/netconvertConfiguration.xsd">

    <input>
        <sumo-net-file value="csItalia.net.xml"/>
    </input>

    <output>
        <output-file value="csItalia.net.xml"/>
    </output>

    <processing>
        <geometry.min-radius.fix.railways value="false"/>
        <geometry.max-grade.fix value="false"/>
        <offset.disable-normalization value="true"/>
        <lefthand value="false"/>
    </processing>

    <junctions>
        <no-turnarounds value="true"/>
        <junctions.corner-detail value="5"/>
        <junctions.limit-turn-speed value="5.5"/>
        <rectangular-lane-cut value="false"/>
    </junctions>

    <pedestrian>
        <walkingareas value="false"/>
    </pedestrian>

</configuration>
-->

<net version="1.9" junctionCornerDetail="5" limitTurnSpeed="5.50" xmlns:xsi="http://www.w3.org/2001/XMLSchema-instance" xsi:noNamespaceSchemaLocation="http://sumo.dlr.de/xsd/net_file.xsd">

    <location netOffset="-494685.45,-4915174.10" convBoundary="0.00,0.00,3192.37,1204.70" origBoundary="8.933263,44.389847,8.973355,44.406821" projParameter="+proj=utm +zone=32 +ellps=WGS84 +datum=WGS84 +units=m +no_defs"/>

    <type id="highway.bridleway" priority="1" numLanes="1" speed="2.78" allow="pedestrian" oneway="1" width="2.00"/>
    <type id="highway.bus_guideway" priority="1" numLanes="1" speed="27.78" allow="bus" oneway="1"/>
    <type id="highway.cycleway" priority="1" numLanes="1" speed="5.56" allow="bicycle" oneway="0" width="1.00"/>
    <type id="highway.footway" priority="1" numLanes="1" speed="2.78" allow="pedestrian" oneway="1" width="2.00"/>
    <type id="highway.ford" priority="1" numLanes="1" speed="2.78" allow="army" oneway="0"/>
    <type id="highway.living_street" priority="2" numLanes="1" speed="2.78" disallow="tram rail_urban rail rail_electric rail_fast ship" oneway="0"/>
    <type id="highway.motorway" priority="14" numLanes="2" speed="39.44" allow="private emergency authority army vip passenger hov taxi bus coach delivery truck trailer motorcycle evehicle custom1 custom2" oneway="1"/>
    <type id="highway.motorway_link" priority="9" numLanes="1" speed="22.22" allow="private emergency authority army vip passenger hov taxi bus coach delivery truck trailer motorcycle evehicle custom1 custom2" oneway="1"/>
    <type id="highway.path" priority="1" numLanes="1" speed="5.56" allow="pedestrian bicycle" oneway="0" width="2.00"/>
    <type id="highway.pedestrian" priority="1" numLanes="1" speed="2.78" allow="pedestrian" oneway="1" width="2.00"/>
    <type id="highway.primary" priority="12" numLanes="2" speed="27.78" disallow="tram rail_urban rail rail_electric rail_fast ship" oneway="0"/>
    <type id="highway.primary_link" priority="7" numLanes="1" speed="22.22" disallow="tram rail_urban rail rail_electric rail_fast ship" oneway="0"/>
    <type id="highway.raceway" priority="15" numLanes="2" speed="83.33" allow="vip" oneway="0"/>
    <type id="highway.residential" priority="3" numLanes="1" speed="13.89" disallow="tram rail_urban rail rail_electric rail_fast ship" oneway="0"/>
    <type id="highway.secondary" priority="11" numLanes="1" speed="27.78" disallow="tram rail_urban rail rail_electric rail_fast ship" oneway="0"/>
    <type id="highway.secondary_link" priority="6" numLanes="1" speed="22.22" disallow="tram rail_urban rail rail_electric rail_fast ship" oneway="0"/>
    <type id="highway.service" priority="1" numLanes="1" speed="5.56" allow="pedestrian delivery bicycle" oneway="0"/>
    <type id="highway.stairs" priority="1" numLanes="1" speed="1.39" allow="pedestrian" oneway="1" width="2.00"/>
    <type id="highway.step" priority="1" numLanes="1" speed="1.39" allow="pedestrian" oneway="1" width="2.00"/>
    <type id="highway.steps" priority="1" numLanes="1" speed="1.39" allow="pedestrian" oneway="1" width="2.00"/>
    <type id="highway.tertiary" priority="10" numLanes="1" speed="22.22" disallow="tram rail_urban rail rail_electric rail_fast ship" oneway="0"/>
    <type id="highway.tertiary_link" priority="5" numLanes="1" speed="22.22" disallow="tram rail_urban rail rail_electric rail_fast ship" oneway="0"/>
    <type id="highway.track" priority="1" numLanes="1" speed="5.56" allow="pedestrian motorcycle moped bicycle" oneway="0"/>
    <type id="highway.trunk" priority="13" numLanes="2" speed="27.78" disallow="pedestrian bicycle tram rail_urban rail rail_electric rail_fast ship" oneway="0"/>
    <type id="highway.trunk_link" priority="8" numLanes="1" speed="22.22" disallow="pedestrian bicycle tram rail_urban rail rail_electric rail_fast ship" oneway="0"/>
    <type id="highway.unclassified" priority="4" numLanes="1" speed="13.89" disallow="tram rail_urban rail rail_electric rail_fast ship" oneway="0"/>
    <type id="highway.unsurfaced" priority="1" numLanes="1" speed="8.33" disallow="tram rail_urban rail rail_electric rail_fast ship" oneway="0"/>
    <type id="railway.highspeed" priority="21" numLanes="1" speed="69.44" allow="rail_fast" oneway="1"/>
    <type id="railway.light_rail" priority="19" numLanes="1" speed="27.78" allow="rail_urban" oneway="1"/>
    <type id="railway.preserved" priority="16" numLanes="1" speed="27.78" allow="rail" oneway="1"/>
    <type id="railway.rail" priority="20" numLanes="1" speed="44.44" allow="rail" oneway="1"/>
    <type id="railway.subway" priority="18" numLanes="1" speed="27.78" allow="rail_urban" oneway="1"/>
    <type id="railway.tram" priority="17" numLanes="1" speed="13.89" allow="tram" oneway="1"/>

    <edge id=":10052639515_0" function="internal">
        <lane id=":10052639515_0_0" index="0" disallow="tram rail_urban rail rail_electric rail_fast ship" speed="13.89" length="2.57" shape="1591.79,822.88 1589.28,822.35"/>
    </edge>
    <edge id=":10052639515_1" function="internal">
        <lane id=":10052639515_1_0" index="0" disallow="tram rail_urban rail rail_electric rail_fast ship" speed="3.65" length="4.67" shape="1591.79,822.88 1590.35,822.80 1589.60,822.32 1589.54,821.43 1590.17,820.13"/>
    </edge>
    <edge id=":10052642290_0" function="internal">
        <lane id=":10052642290_0_0" index="0" disallow="tram rail_urban rail rail_electric rail_fast ship" speed="8.29" length="12.53" shape="1838.70,502.20 1837.58,499.62 1835.56,497.76 1832.64,496.62 1828.82,496.21"/>
    </edge>
    <edge id=":10052642290_1" function="internal">
        <lane id=":10052642290_1_0" index="0" disallow="tram rail_urban rail rail_electric rail_fast ship" speed="11.48" length="3.21" shape="1838.70,502.20 1838.08,499.06"/>
    </edge>
    <edge id=":10052642290_2" function="internal">
        <lane id=":10052642290_2_0" index="0" disallow="tram rail_urban rail rail_electric rail_fast ship" speed="4.13" length="2.65" shape="1838.70,502.20 1838.12,500.49 1838.28,499.67"/>
    </edge>
    <edge id=":10052642290_9" function="internal">
        <lane id=":10052642290_9_0" index="0" disallow="tram rail_urban rail rail_electric rail_fast ship" speed="11.48" length="10.73" shape="1838.08,499.06 1837.73,497.24 1837.32,493.30 1837.48,490.40 1838.20,488.52"/>
    </edge>
    <edge id=":10052642290_10" function="internal">
        <lane id=":10052642290_10_0" index="0" disallow="tram rail_urban rail rail_electric rail_fast ship" speed="4.13" length="3.20" shape="1838.28,499.67 1838.33,499.39 1839.34,498.90 1841.14,499.03"/>
    </edge>
    <edge id=":10052642290_3" function="internal">
        <lane id=":10052642290_3_0" index="0" disallow="tram rail_urban rail rail_electric rail_fast ship" speed="7.65" length="9.17" shape="1840.77,490.43 1839.78,492.34 1839.51,494.40 1839.97,496.63 1841.14,499.03"/>
    </edge>
    <edge id=":10052642290_4" function="internal">
        <lane id=":10052642290_4_0" index="0" disallow="tram rail_urban rail rail_electric rail_fast ship" speed="10.75" length="13.80" shape="1840.77,490.43 1838.39,492.99 1835.61,494.81 1832.42,495.88 1828.82,496.21"/>
    </edge>
    <edge id=":10052642290_5" function="internal">
        <lane id=":10052642290_5_0" index="0" disallow="tram rail_urban rail rail_electric rail_fast ship" speed="3.65" length="4.67" shape="1840.77,490.43 1839.42,490.92 1838.53,490.76 1838.13,489.97 1838.20,488.52"/>
    </edge>
    <edge id=":10052642290_6" function="internal">
        <lane id=":10052642290_6_0" index="0" disallow="tram rail_urban rail rail_electric rail_fast ship" speed="9.29" length="10.18" shape="1829.50,493.01 1832.04,492.76 1834.34,491.93 1836.39,490.51 1838.20,488.52"/>
    </edge>
    <edge id=":10052642290_7" function="internal">
        <lane id=":10052642290_7_0" index="0" disallow="tram rail_urban rail rail_electric rail_fast ship" speed="10.30" length="13.69" shape="1829.50,493.01 1833.22,493.43 1836.40,494.57 1839.04,496.43 1841.14,499.03"/>
    </edge>
    <edge id=":10052642290_8" function="internal">
        <lane id=":10052642290_8_0" index="0" disallow="tram rail_urban rail rail_electric rail_fast ship" speed="3.67" length="1.47" shape="1829.50,493.01 1830.53,494.07"/>
    </edge>
    <edge id=":10052642290_11" function="internal">
        <lane id=":10052642290_11_0" index="0" disallow="tram rail_urban rail rail_electric rail_fast ship" speed="3.67" length="3.29" shape="1830.53,494.07 1830.76,494.95 1830.19,495.66 1828.82,496.21"/>
    </edge>
    <edge id=":10052642295_0" function="internal">
        <lane id=":10052642295_0_0" index="0" disallow="tram rail_urban rail rail_electric rail_fast ship" speed="3.65" length="4.67" shape="1838.43,488.23 1839.78,487.74 1840.66,487.90 1841.07,488.69 1840.99,490.13"/>
    </edge>
    <edge id=":10052642303_0" function="internal">
        <lane id=":10052642303_0_0" index="0" allow="pedestrian delivery bicycle" speed="5.56" length="8.69" shape="1714.03,475.58 1714.63,473.19 1714.40,471.47 1713.75,469.70 1713.10,467.18"/>
    </edge>
    <edge id=":10052642303_1" function="internal">
        <lane id=":10052642303_1_0" index="0" allow="pedestrian delivery bicycle" speed="5.56" length="8.97" shape="1714.03,475.58 1715.24,473.01 1716.61,471.09 1718.14,469.83 1719.82,469.24"/>
    </edge>
    <edge id=":10052642303_2" function="internal">
        <lane id=":10052642303_2_0" index="0" allow="pedestrian delivery bicycle" speed="3.73" length="4.98" shape="1714.03,475.58 1714.91,474.32 1715.77,473.91 1716.61,474.35 1717.44,475.65"/>
    </edge>
    <edge id=":10052642303_3" function="internal">
        <lane id=":10052642303_3_0" index="0" allow="pedestrian delivery bicycle" speed="5.56" length="4.50" shape="1720.29,472.40 1719.48,472.70 1718.73,473.34 1718.05,474.32 1717.44,475.65"/>
    </edge>
    <edge id=":10052642303_4" function="internal">
        <lane id=":10052642303_4_0" index="0" allow="pedestrian delivery bicycle" speed="5.56" length="10.11" shape="1720.29,472.40 1717.52,472.42 1715.40,471.56 1713.93,469.81 1713.10,467.18"/>
    </edge>
    <edge id=":10052642303_5" function="internal">
        <lane id=":10052642303_5_0" index="0" allow="pedestrian delivery bicycle" speed="3.65" length="4.67" shape="1720.29,472.40 1718.99,471.79 1718.48,471.06 1718.75,470.21 1719.82,469.24"/>
    </edge>
    <edge id=":10052642303_6" function="internal">
        <lane id=":10052642303_6_0" index="0" allow="pedestrian delivery bicycle" speed="5.07" length="5.00" shape="1716.26,466.66 1716.67,467.96 1717.40,468.82 1718.45,469.25 1719.82,469.24"/>
    </edge>
    <edge id=":10052642303_7" function="internal">
        <lane id=":10052642303_7_0" index="0" allow="pedestrian delivery bicycle" speed="5.56" length="9.33" shape="1716.26,466.66 1716.98,469.36 1717.74,471.25 1718.05,473.09 1717.44,475.65"/>
    </edge>
    <edge id=":10052642303_8" function="internal">
        <lane id=":10052642303_8_0" index="0" allow="pedestrian delivery bicycle" speed="3.65" length="4.67" shape="1716.26,466.66 1715.66,467.97 1714.94,468.50 1714.08,468.23 1713.10,467.18"/>
    </edge>
    <edge id=":10052642310_0" function="internal">
        <lane id=":10052642310_0_0" index="0" allow="pedestrian delivery bicycle" speed="4.87" length="4.61" shape="1703.04,396.88 1702.67,395.87 1701.94,395.22 1700.86,394.94 1699.42,395.03"/>
    </edge>
    <edge id=":10052642310_1" function="internal">
        <lane id=":10052642310_1_0" index="0" allow="pedestrian delivery bicycle" speed="5.56" length="6.33" shape="1703.04,396.88 1702.76,394.43 1702.82,392.64 1703.22,391.51 1703.96,391.04"/>
    </edge>
    <edge id=":10052642310_2" function="internal">
        <lane id=":10052642310_2_0" index="0" allow="pedestrian delivery bicycle" speed="3.75" length="5.05" shape="1703.04,396.88 1703.10,395.32 1703.61,394.50 1704.58,394.42 1705.99,395.08"/>
    </edge>
    <edge id=":10052642310_3" function="internal">
        <lane id=":10052642310_3_0" index="0" allow="pedestrian delivery bicycle" speed="3.58" length="2.01" shape="1704.45,394.20 1705.06,394.17 1705.52,394.31 1705.83,394.61 1705.99,395.08"/>
    </edge>
    <edge id=":10052642310_4" function="internal">
        <lane id=":10052642310_4_0" index="0" allow="pedestrian delivery bicycle" speed="5.56" length="5.10" shape="1704.45,394.20 1699.42,395.03"/>
    </edge>
    <edge id=":10052642310_5" function="internal">
        <lane id=":10052642310_5_0" index="0" allow="pedestrian delivery bicycle" speed="3.65" length="4.67" shape="1704.45,394.20 1703.14,393.60 1702.62,392.87 1702.89,392.02 1703.96,391.04"/>
    </edge>
    <edge id=":10052642310_6" function="internal">
        <lane id=":10052642310_6_0" index="0" allow="pedestrian delivery bicycle" speed="5.56" length="5.13" shape="1698.89,391.88 1703.96,391.04"/>
    </edge>
    <edge id=":10052642310_7" function="internal">
        <lane id=":10052642310_7_0" index="0" allow="pedestrian delivery bicycle" speed="5.56" length="8.79" shape="1698.89,391.88 1701.74,391.67 1703.87,392.14 1705.29,393.27 1705.99,395.08"/>
    </edge>
    <edge id=":10052642310_8" function="internal">
        <lane id=":10052642310_8_0" index="0" allow="pedestrian delivery bicycle" speed="3.65" length="4.67" shape="1698.89,391.88 1700.21,392.47 1700.73,393.19 1700.47,394.04 1699.42,395.03"/>
    </edge>
    <edge id=":10052642314_0" function="internal">
        <lane id=":10052642314_0_0" index="0" allow="pedestrian delivery bicycle" speed="5.14" length="5.14" shape="1667.21,354.32 1665.83,354.76 1664.91,355.50 1664.45,356.56 1664.46,357.92"/>
    </edge>
    <edge id=":10052642314_1" function="internal">
        <lane id=":10052642314_1_0" index="0" allow="pedestrian delivery bicycle" speed="5.00" length="5.05" shape="1663.10,348.58 1663.48,349.92 1664.20,350.80 1665.25,351.21 1666.65,351.17"/>
    </edge>
    <edge id=":10052642314_2" function="internal">
        <lane id=":10052642314_2_0" index="0" disallow="tram rail_urban rail rail_electric rail_fast ship" speed="22.22" length="9.44" shape="1663.10,348.58 1664.46,357.92"/>
    </edge>
    <edge id=":10052642335_0" function="internal">
        <lane id=":10052642335_0_0" index="0" allow="pedestrian delivery bicycle" speed="5.56" length="9.40" shape="1697.24,444.73 1695.78,435.44"/>
    </edge>
    <edge id=":10052642335_1" function="internal">
        <lane id=":10052642335_1_0" index="0" allow="pedestrian delivery bicycle" speed="5.56" length="10.17" shape="1697.24,444.73 1697.20,441.94 1698.06,439.81 1699.83,438.34 1702.50,437.53"/>
    </edge>
    <edge id=":10052642335_2" function="internal">
        <lane id=":10052642335_2_0" index="0" allow="pedestrian delivery bicycle" speed="3.65" length="4.67" shape="1697.24,444.73 1697.84,443.42 1698.57,442.90 1699.42,443.17 1700.40,444.23"/>
    </edge>
    <edge id=":10052642335_3" function="internal">
        <lane id=":10052642335_3_0" index="0" allow="pedestrian delivery bicycle" speed="5.04" length="5.00" shape="1702.99,440.69 1701.67,441.09 1700.81,441.81 1700.38,442.86 1700.40,444.23"/>
    </edge>
    <edge id=":10052642335_4" function="internal">
        <lane id=":10052642335_4_0" index="0" allow="pedestrian delivery bicycle" speed="5.56" length="10.16" shape="1702.99,440.69 1700.20,440.73 1698.07,439.86 1696.60,438.10 1695.78,435.44"/>
    </edge>
    <edge id=":10052642335_5" function="internal">
        <lane id=":10052642335_5_0" index="0" allow="pedestrian delivery bicycle" speed="3.65" length="4.67" shape="1702.99,440.69 1701.68,440.09 1701.16,439.36 1701.43,438.50 1702.50,437.53"/>
    </edge>
    <edge id=":10052642335_6" function="internal">
        <lane id=":10052642335_6_0" index="0" allow="pedestrian delivery bicycle" speed="5.05" length="5.01" shape="1698.95,434.95 1699.35,436.25 1700.07,437.12 1701.12,437.55 1702.50,437.53"/>
    </edge>
    <edge id=":10052642335_7" function="internal">
        <lane id=":10052642335_7_0" index="0" allow="pedestrian delivery bicycle" speed="5.56" length="9.40" shape="1698.95,434.95 1700.40,444.23"/>
    </edge>
    <edge id=":10052642335_8" function="internal">
        <lane id=":10052642335_8_0" index="0" allow="pedestrian delivery bicycle" speed="3.65" length="4.67" shape="1698.95,434.95 1698.34,436.25 1697.61,436.77 1696.76,436.50 1695.78,435.44"/>
    </edge>
    <edge id=":10052655918_0" function="internal">
        <lane id=":10052655918_0_0" index="0" disallow="tram rail_urban rail rail_electric rail_fast ship" speed="3.65" length="4.67" shape="1587.89,479.44 1587.29,480.75 1586.56,481.27 1585.71,481.00 1584.73,479.94"/>
    </edge>
    <edge id=":10052655919_0" function="internal">
        <lane id=":10052655919_0_0" index="0" disallow="tram rail_urban rail rail_electric rail_fast ship" speed="3.65" length="4.67" shape="1576.41,457.28 1575.29,456.37 1574.97,455.54 1575.44,454.78 1576.71,454.10"/>
    </edge>
    <edge id=":10052655921_0" function="internal">
        <lane id=":10052655921_0_0" index="0" allow="pedestrian delivery bicycle" speed="9.72" length="0.31" shape="1577.58,603.03 1577.54,602.73"/>
    </edge>
    <edge id=":10052655921_1" function="internal">
        <lane id=":10052655921_1_0" index="0" allow="pedestrian delivery bicycle" speed="9.72" length="0.21" shape="1580.71,602.29 1580.74,602.50"/>
    </edge>
    <edge id=":10052655921_2" function="internal">
        <lane id=":10052655921_2_0" index="0" disallow="tram rail_urban rail rail_electric rail_fast ship" speed="3.65" length="2.34" shape="1580.71,602.29 1580.08,603.59 1579.34,604.10"/>
    </edge>
    <edge id=":10052655921_3" function="internal">
        <lane id=":10052655921_3_0" index="0" disallow="tram rail_urban rail rail_electric rail_fast ship" speed="3.65" length="2.34" shape="1579.34,604.10 1578.49,603.81 1577.54,602.73"/>
    </edge>
    <edge id=":10052655922_0" function="internal">
        <lane id=":10052655922_0_0" index="0" disallow="tram rail_urban rail rail_electric rail_fast ship" speed="13.89" length="9.34" shape="1576.42,594.64 1575.08,585.40"/>
    </edge>
    <edge id=":10052655922_1" function="internal">
        <lane id=":10052655922_1_0" index="0" allow="pedestrian delivery bicycle" speed="6.88" length="3.23" shape="1576.42,594.64 1576.43,591.86 1576.60,591.45"/>
    </edge>
    <edge id=":10052655922_7" function="internal">
        <lane id=":10052655922_7_0" index="0" allow="pedestrian delivery bicycle" speed="6.88" length="6.95" shape="1576.60,591.45 1577.33,589.74 1579.12,588.29 1581.80,587.51"/>
    </edge>
    <edge id=":10052655922_2" function="internal">
        <lane id=":10052655922_2_0" index="0" allow="pedestrian delivery bicycle" speed="5.09" length="5.10" shape="1582.33,590.67 1580.97,591.06 1580.06,591.78 1579.60,592.83 1579.59,594.20"/>
    </edge>
    <edge id=":10052655922_3" function="internal">
        <lane id=":10052655922_3_0" index="0" allow="pedestrian delivery bicycle" speed="6.90" length="10.21" shape="1582.33,590.67 1579.51,590.68 1577.36,589.80 1575.88,588.04 1575.08,585.40"/>
    </edge>
    <edge id=":10052655922_4" function="internal">
        <lane id=":10052655922_4_0" index="0" allow="pedestrian delivery bicycle" speed="3.65" length="4.67" shape="1582.33,590.67 1581.01,590.08 1580.49,589.36 1580.75,588.50 1581.80,587.51"/>
    </edge>
    <edge id=":10052655922_5" function="internal">
        <lane id=":10052655922_5_0" index="0" allow="pedestrian delivery bicycle" speed="5.06" length="5.01" shape="1578.24,584.92 1578.64,586.22 1579.36,587.09 1580.41,587.52 1581.80,587.51"/>
    </edge>
    <edge id=":10052655922_6" function="internal">
        <lane id=":10052655922_6_0" index="0" disallow="tram rail_urban rail rail_electric rail_fast ship" speed="13.89" length="9.38" shape="1578.24,584.92 1579.59,594.20"/>
    </edge>
    <edge id=":10052655940_0" function="internal">
        <lane id=":10052655940_0_0" index="0" allow="pedestrian delivery bicycle" speed="5.56" length="1.63" shape="1595.54,595.79 1595.07,595.89 1594.74,595.93 1594.40,595.91 1593.92,595.86"/>
    </edge>
    <edge id=":10052655940_1" function="internal">
        <lane id=":10052655940_1_0" index="0" allow="pedestrian delivery bicycle" speed="5.56" length="0.54" shape="1594.33,592.68 1594.49,592.70 1594.60,592.71 1594.71,592.69 1594.87,592.66"/>
    </edge>
    <edge id=":10052655945_0" function="internal">
        <lane id=":10052655945_0_0" index="0" allow="pedestrian delivery bicycle" speed="5.56" length="4.80" shape="1588.23,592.74 1587.09,591.63 1586.04,590.87 1585.09,590.46 1584.22,590.40"/>
    </edge>
    <edge id=":10052655945_1" function="internal">
        <lane id=":10052655945_1_0" index="0" allow="pedestrian delivery bicycle" speed="5.56" length="9.27" shape="1588.23,592.74 1586.90,590.78 1586.42,588.71 1586.77,586.54 1587.97,584.26"/>
    </edge>
    <edge id=":10052655945_2" function="internal">
        <lane id=":10052655945_2_0" index="0" allow="pedestrian delivery bicycle" speed="4.02" length="5.41" shape="1588.23,592.74 1588.80,591.17 1589.59,590.50 1590.60,590.73 1591.83,591.87"/>
    </edge>
    <edge id=":10052655945_3" function="internal">
        <lane id=":10052655945_3_0" index="0" allow="pedestrian delivery bicycle" speed="5.56" length="9.10" shape="1591.61,584.91 1589.63,586.86 1589.01,588.67 1589.74,590.34 1591.83,591.87"/>
    </edge>
    <edge id=":10052655945_4" function="internal">
        <lane id=":10052655945_4_0" index="0" allow="pedestrian delivery bicycle" speed="5.56" length="9.46" shape="1591.61,584.91 1589.55,586.85 1588.25,588.46 1586.78,589.66 1584.22,590.40"/>
    </edge>
    <edge id=":10052655945_5" function="internal">
        <lane id=":10052655945_5_0" index="0" allow="pedestrian delivery bicycle" speed="3.99" length="5.39" shape="1591.61,584.91 1590.45,586.11 1589.46,586.40 1588.64,585.79 1587.97,584.26"/>
    </edge>
    <edge id=":10052655945_6" function="internal">
        <lane id=":10052655945_6_0" index="0" allow="pedestrian delivery bicycle" speed="5.56" length="5.29" shape="1583.76,587.23 1584.92,586.92 1586.01,586.32 1587.02,585.43 1587.97,584.26"/>
    </edge>
    <edge id=":10052655945_7" function="internal">
        <lane id=":10052655945_7_0" index="0" allow="pedestrian delivery bicycle" speed="5.56" length="9.72" shape="1583.76,587.23 1586.39,587.37 1587.98,588.49 1589.48,590.14 1591.83,591.87"/>
    </edge>
    <edge id=":10052655945_8" function="internal">
        <lane id=":10052655945_8_0" index="0" allow="pedestrian delivery bicycle" speed="3.65" length="4.67" shape="1583.76,587.23 1585.06,587.85 1585.57,588.59 1585.29,589.44 1584.22,590.40"/>
    </edge>
    <edge id=":10052703582_0" function="internal">
        <lane id=":10052703582_0_0" index="0" disallow="tram rail_urban rail rail_electric rail_fast ship" speed="22.22" length="10.38" shape="2295.10,523.02 2284.94,520.87"/>
    </edge>
    <edge id=":10052703582_1" function="internal">
        <lane id=":10052703582_1_0" index="0" allow="pedestrian delivery bicycle" speed="6.68" length="4.13" shape="2295.10,523.02 2291.31,521.68 2291.24,521.59"/>
    </edge>
    <edge id=":10052703582_7" function="internal">
        <lane id=":10052703582_7_0" index="0" allow="pedestrian delivery bicycle" speed="6.68" length="9.25" shape="2291.24,521.59 2289.54,519.68 2289.79,517.01 2292.05,513.70"/>
    </edge>
    <edge id=":10052703582_2" function="internal">
        <lane id=":10052703582_2_0" index="0" allow="pedestrian delivery bicycle" speed="4.68" length="5.82" shape="2294.44,515.83 2293.45,517.28 2293.34,518.44 2294.11,519.31 2295.76,519.89"/>
    </edge>
    <edge id=":10052703582_3" function="internal">
        <lane id=":10052703582_3_0" index="0" allow="pedestrian delivery bicycle" speed="9.09" length="11.20" shape="2294.44,515.83 2291.85,518.37 2289.41,520.05 2287.10,520.89 2284.94,520.87"/>
    </edge>
    <edge id=":10052703582_4" function="internal">
        <lane id=":10052703582_4_0" index="0" allow="pedestrian delivery bicycle" speed="3.65" length="4.67" shape="2294.44,515.83 2293.04,516.19 2292.18,515.96 2291.85,515.12 2292.05,513.70"/>
    </edge>
    <edge id=":10052703582_5" function="internal">
        <lane id=":10052703582_5_0" index="0" allow="pedestrian delivery bicycle" speed="7.71" length="7.87" shape="2285.60,517.74 2286.90,517.68 2288.40,516.98 2290.12,515.65 2292.05,513.70"/>
    </edge>
    <edge id=":10052703582_6" function="internal">
        <lane id=":10052703582_6_0" index="0" disallow="tram rail_urban rail rail_electric rail_fast ship" speed="22.22" length="10.38" shape="2285.60,517.74 2295.76,519.89"/>
    </edge>
    <edge id=":10052703588_0" function="internal">
        <lane id=":10052703588_0_0" index="0" disallow="tram rail_urban rail rail_electric rail_fast ship" speed="22.22" length="10.40" shape="2347.77,531.14 2337.47,529.73"/>
    </edge>
    <edge id=":10052703588_1" function="internal">
        <lane id=":10052703588_1_0" index="0" allow="pedestrian delivery bicycle" speed="9.11" length="2.61" shape="2347.77,531.14 2345.73,530.42 2345.39,530.14"/>
    </edge>
    <edge id=":10052703588_7" function="internal">
        <lane id=":10052703588_7_0" index="0" allow="pedestrian delivery bicycle" speed="9.11" length="8.61" shape="2345.39,530.14 2343.84,528.86 2342.10,526.45 2340.51,523.18"/>
    </edge>
    <edge id=":10052703588_2" function="internal">
        <lane id=":10052703588_2_0" index="0" allow="pedestrian delivery bicycle" speed="7.73" length="7.90" shape="2343.48,521.97 2344.64,524.47 2345.82,526.30 2347.01,527.47 2348.20,527.97"/>
    </edge>
    <edge id=":10052703588_3" function="internal">
        <lane id=":10052703588_3_0" index="0" allow="pedestrian delivery bicycle" speed="6.68" length="13.40" shape="2343.48,521.97 2344.50,525.86 2343.84,528.45 2341.49,529.74 2337.47,529.73"/>
    </edge>
    <edge id=":10052703588_4" function="internal">
        <lane id=":10052703588_4_0" index="0" allow="pedestrian delivery bicycle" speed="3.65" length="4.67" shape="2343.48,521.97 2343.19,523.38 2342.60,524.05 2341.71,523.99 2340.51,523.18"/>
    </edge>
    <edge id=":10052703588_5" function="internal">
        <lane id=":10052703588_5_0" index="0" allow="pedestrian delivery bicycle" speed="4.68" length="5.83" shape="2337.90,526.56 2339.65,526.56 2340.67,526.00 2340.96,524.88 2340.51,523.18"/>
    </edge>
    <edge id=":10052703588_6" function="internal">
        <lane id=":10052703588_6_0" index="0" disallow="tram rail_urban rail rail_electric rail_fast ship" speed="22.22" length="10.40" shape="2337.90,526.56 2348.20,527.97"/>
    </edge>
    <edge id=":10052704723_0" function="internal">
        <lane id=":10052704723_0_0" index="0" allow="pedestrian delivery bicycle" speed="5.56" length="24.20" shape="2135.99,373.58 2134.57,371.42 2130.50,369.10 2123.77,366.62 2114.37,363.98"/>
    </edge>
    <edge id=":10052704723_1" function="internal">
        <lane id=":10052704723_1_0" index="0" allow="pedestrian delivery bicycle" speed="5.56" length="25.59" shape="2135.99,373.58 2134.70,370.89 2131.03,367.32 2124.98,362.88 2116.54,357.56"/>
    </edge>
    <edge id=":10052704723_2" function="internal">
        <lane id=":10052704723_2_0" index="0" allow="pedestrian delivery bicycle" speed="5.56" length="11.82" shape="2135.99,373.58 2135.99,370.33 2136.37,367.71 2137.20,365.18 2138.58,362.23"/>
    </edge>
    <edge id=":10052704723_3" function="internal">
        <lane id=":10052704723_3_0" index="0" allow="pedestrian delivery bicycle" speed="5.56" length="11.52" shape="2135.99,373.58 2136.34,370.46 2137.70,368.41 2140.06,367.43 2143.42,367.54"/>
    </edge>
    <edge id=":10052704723_4" function="internal">
        <lane id=":10052704723_4_0" index="0" allow="pedestrian delivery bicycle" speed="3.65" length="4.67" shape="2135.99,373.58 2136.76,372.36 2137.55,371.94 2138.36,372.32 2139.19,373.50"/>
    </edge>
    <edge id=":10052704723_5" function="internal">
        <lane id=":10052704723_5_0" index="0" allow="pedestrian delivery bicycle" speed="4.97" length="5.58" shape="2142.89,370.69 2141.22,370.63 2140.04,371.08 2139.37,372.03 2139.19,373.50"/>
    </edge>
    <edge id=":10052704723_6" function="internal">
        <lane id=":10052704723_6_0" index="0" allow="pedestrian delivery bicycle" speed="5.56" length="29.30" shape="2142.89,370.69 2114.37,363.98"/>
    </edge>
    <edge id=":10052704723_7" function="internal">
        <lane id=":10052704723_7_0" index="0" allow="pedestrian delivery bicycle" speed="5.56" length="29.50" shape="2142.89,370.69 2137.30,368.66 2129.48,364.78 2121.77,360.58 2116.54,357.56"/>
    </edge>
    <edge id=":10052704723_8" function="internal">
        <lane id=":10052704723_8_0" index="0" allow="pedestrian delivery bicycle" speed="5.56" length="11.79" shape="2142.89,370.69 2139.66,369.67 2137.87,367.92 2137.50,365.44 2138.58,362.23"/>
    </edge>
    <edge id=":10052704723_9" function="internal">