<?xml version="1.0" encoding="UTF-8"?>

<!-- generated on 2022-10-27 21:05:43 by Eclipse SUMO GUI Version 1.14.1
-->

<configuration xmlns:xsi="http://www.w3.org/2001/XMLSchema-instance" xsi:noNamespaceSchemaLocation="http://sumo.dlr.de/xsd/sumoConfiguration.xsd">

 <input>
        <net-file value="csoItalia.net.xml"/>
        <route-files value="csoItalia.rouu.xml"/>
        <additional-files value="csoItalia.xml"/>
    </input>
</configuration>

