<?xml version="1.0" encoding="UTF-8"?>

<!-- generated on 2022-10-27 20:54:45 by Eclipse SUMO netedit Version 1.14.1
-->

<routes xmlns:xsi="http://www.w3.org/2001/XMLSchema-instance" xsi:noNamespaceSchemaLocation="http://sumo.dlr.de/xsd/routes_file.xsd">
    <!-- VTypes -->
    <vType id="DEFAULT_VEHTYPE" vClass="bus" color="128,0,0"/>
    <vType id="t_2" vClass="passenger" color="224,224,24"/>
    <vType id="t_1" vClass="scooter" color="84,52,165"/>
    <vType id="t_0"/>
    <vType id="f_1"/>
    <!-- Vehicles, persons and containers (sorted by depart) -->
    <!--BUS Close circle -->
    <!--
    <trip id="t_0" depart="0.00" type="t_2" from="36843435#0" to="18459823#2" via="810218391#1 751968798#6 751968798#11 22890755#1 42136019#2 42136019#3 18114190#2 18114068#2 554478501#1 53836937"/>

    <flow id="t_1" begin="0.00" type="t_2" line="bus" end="3600.00" type="t_2" from="36843435#0" to="18459823#2" via="810218391#1 751968798#6 751968798#11 22890755#1 42136019#2 42136019#3 18114190#2 18114068#2 554478501#1 53836937" vehsPerHour="15.00" type="t_2"/>
    
    <flow id="f_1" type="t_2" begin="0.00" type="t_2" color="224,224,24" from="751968800#8" to="156620187" via="58774924#9 554478501#1 53836937" end="180.00" type="t_2" vehsPerHour="180.00" type="t_2"/>
    <trip id="t_2" depart="0.00" type="t_2" from="36843435#0" to="22890755#5" via="810218391#1 751968798#11"/>
    -->
    <route id="busRoute" edges="36843435#1 18459823#2 5793098#0 5793098#1 810218391#0 810218391#1 566784919#0 751968798#0 751968798#1 751968798#2 751968798#3 751968798#4 751968798#5 751968798#6 751968798#8 751968798#9 751968798#11 751968798#12 22890755#1 42136019#1 42136019#2 42136019#3 18114190#1 18114190#2 18114190#3 18114190#5 18114190#6 555004050#0 555004050#1 555004050#2 18114068#0 18114068#1 18114068#2 18114068#4 521567461 201690898 551037910#0 551037910#1 551040363 555280304#0 555280304#1 79213579#0 79213579#1 -18113262 -782184072#1 13857333 105016363#0 105016363#1 58774924#12 58774924#15 554478501#1 566784918 5243523#0 5243523#2 53836937 550243739#0 550243739#1 18459823#0 1025248679">
        <stop busStop="Marconi1-Fiera" duration="20"/>
        <stop busStop="Marconi2-Rimessa" duration="20"/>
        <stop busStop="Italia1-PuntaVagno" duration="20"/>
        <stop busStop="Italia2-Piave" duration="20"/>
        <stop busStop="Italia3-Zara" duration="20"/>
    </route>

    <personFlow id="people_1" begin="0.00" color="blue" end="3600.00" personsPerHour="120.00">
        <walk from="5793098#1" busStop="Marconi1-Fiera" />
        <ride to="751968798#12" lines="ANY"/>
        <walk to="751968798#12"/>
    </personFlow>
    <!--
    <flow id="bus_0" type="DEFAULT_VEHTYPE" begin="0.00" type="t_2" line="busRoute" end="3600.00" type="t_2" from="36843435#1" to="554478501#1" vehsPerHour="10.00" type="t_2">
    </flow>
    -->
    <vehicle id="0" depart="0.00" type="t_2">
        <route edges="260657224#0 -260657225#0 810279143#1 810279137 810279146 810279135 525134550 810218391#0 810218391#1 566784919#0 751968798#0 751968798#1 751968798#2 751968798#3 751968798#4 751968798#5 751968798#6 27121335 13242013#0 13242013#1 13242013#2 13242013#3 13242013#4 13242013#5 13242013#5-AddedOffRampEdge 79213581 -18114068#3 -18114068#1 -18114068#0 -555004050#2 -555004050#1 -555004050#0 42136016#0 42136016#1 -141494573#4 -141494573#2 -141494573#1 -141494573#0"/>
    </vehicle>
    <vehicle id="1" depart="1.00" type="t_2">
        <route edges="-79213558"/>
    </vehicle>
    <vehicle id="3" depart="3.00" type="t_2">
        <route edges="751968800#10 751968800#11 58774924#2 58774924#4 22891220#0 22891220#1 22891220#2 22891220#3 -555004050#2 -555004050#1 -555004050#0 42136016#0 42136016#1 23044584 -23044644#0"/>
    </vehicle>
    <vehicle id="4" depart="4.00" type="t_2">
        <route edges="141494573#1 141494573#2 -141494573#2"/>
    </vehicle>
    <vehicle id="5" depart="5.00" type="t_2">
        <route edges="-544590793#1 -23044601#2 -23044601#0 23044585 18114190#1 18114190#2 18114190#3 18114190#5 22938695#0"/>
    </vehicle>
    <vehicle id="6" depart="6.00" type="t_2">
        <route edges="-141494573#4 141494573#4 -42136016#1 -42136016#0 555004050#0 555004050#1 555004050#2 -555004051#1 555004052#0 -555004052#0"/>
    </vehicle>
    <vehicle id="7" depart="7.00" type="t_2">
        <route edges="26594686#1 42136012#0 19574290#2 19574290#3 106337490#2 106337490#3 751968798#0 751968798#1 751968798#2 751968798#3 751968798#4 751968798#5 751968798#6 27121335 13242013#0 13242013#1 13242013#2 13242013#3 13242013#4 13242013#5 13242013#5-AddedOffRampEdge 79213572 275157850 19741563#2 551040366 551037910#0 551037910#1 551040363 555280304#0 555280304#1 79213579#0 79213579#1 -18113262 -782184072#1 -782184072#0 -106343357 -105890964#1 -105890964#0 550273888 56967630 -23126140#1 -23126140#0 23126140#0"/>
    </vehicle>
    <vehicle id="9" depart="9.00" type="t_2">
        <route edges="57966138#0 57966138#1 57966138#2 525134550 810218391#0 810218391#1 566784919#0 751968798#0 751968798#1 751968798#2 751968798#3 751968798#4 751968798#5 751968798#6 27121335 13242013#0 13242013#1 13242013#2 13242013#3 13242013#4 13242013#5 13242013#5-AddedOffRampEdge 79213581 -18114068#3 -18114068#1 -18114068#0 -555004050#2 -555004050#1 -555004050#0 -18114190#6 -18114190#5 -18114190#3 -18114190#2 -18114190#1 -105890950#3"/>
    </vehicle>
    <vehicle id="10" depart="10.00" type="t_2">
        <route edges="5793098#0 5793098#1 810218391#0 810218391#1 566784919#0 751968798#0 751968798#1 751968798#2 751968798#3 751968798#4 751968798#5 751968798#6 27121335 13242013#0 13242013#1 13242013#2 13242013#3 13242013#4 13242013#5 13242013#5-AddedOffRampEdge 79213581 -18114068#3 -18114068#1 -18114068#0 -555004050#2 -555004050#1 -555004050#0 -18114190#6 -18114190#5 -18114190#3 -18114190#2 42136024 42136019#3"/>
    </vehicle>
    <vehicle id="11" depart="11.00" type="t_2">
        <route edges="106343357 782184072#0 13857333 105016363#0 105016363#1 58774924#12 58774924#15 751968798#0 751968798#1 751968798#2 751968798#3 751968798#4 -28371868#3 -28371868#2"/>
    </vehicle>
    <vehicle id="13" depart="13.00" type="t_1">
        <route edges="-23125579 13242082#3 13242082#4 13242082#5 13242082#6 27288601 13242013#2 13242013#3 13242013#4 13242013#5 13242013#5-AddedOffRampEdge 79213572 275157850 19741563#2 551040366 551037910#0 551037910#1 551040363 555280304#0 555280304#1 79213579#0 79213579#1 -18113262 -782184072#1 -782184072#0 -106343357 -105890964#1 -105890964#0 550273888 56967630 23126140#2 23126140#3 23126142#1 23126142#2 -23126142#2 -23126142#1 -23126142#0 -23126140#2"/>
    </vehicle>
    <vehicle id="14" depart="14.00" type="t_1">
        <route edges="58774924#8 58774924#9 58774924#10 58774924#11 58774924#12 58774924#15 554478501#1 5717287#1 5717287#2 19574290#1 19574290#2 19574290#3 106337490#2 26594686#1 24443490#0"/>
    </vehicle>
    <vehicle id="15" depart="15.00" type="t_2">
        <route edges="5793098#1 5243523#2 42704040 525129472#0"/>
    </vehicle>
    <vehicle id="17" depart="17.00" type="t_2">
        <route edges="13242082#7 58774924#8 58774924#9 58774924#10 58774924#11 58774924#12 58774924#15 751968798#0 751968798#1 751968798#2 751968798#3 751968798#4 751968798#5 751968798#6 27121335 13242013#0 13242013#1 13242013#2 13242013#3 13242013#4 13242013#5 13242013#5-AddedOffRampEdge 79213572 275157850 19741563#2 551040366 551037910#0 551037910#1 551040363 555280304#0 555280304#1 79213579#0 79213579#1 -18113262 -782184072#1 -782184072#0 -106343357 -105890964#1 -105890964#0 550273888 56967630 23126140#2 23126140#3"/>
    </vehicle>
    <vehicle id="19" depart="19.00" type="t_2">
        <route edges="751968798#11 751968798#12 22890755#1 751968800#6 751968800#8 751968800#9 751968800#10 751968800#11 58774924#2 58774924#4 58774924#5 58774924#6 58774924#7 58774924#8 58774924#9 58774924#10 58774924#11 58774924#12 58774924#15 751968798#0 751968798#1 23378906#1 23378906#2"/>
    </vehicle>
    <vehicle id="20" depart="20.00" type="t_1">
        <route edges="42136016#1 -42136016#1 -42136016#0 555004050#0 555004050#1 555004050#2 18114068#0 18114068#1 18114068#2 -18114068#3"/>
    </vehicle>
    <vehicle id="21" depart="21.00" type="t_2">
        <route edges="-544590794#2 -544590794#1 -544590794#0 -23044601#2 -23044601#0 23044585 18114190#1 18114190#2 18114190#3 18114190#5 18114190#6 13862052#0 13862052#1 58774924#2 58774924#4 58774924#5 58774924#6 13242013#0"/>
    </vehicle>
    <vehicle id="22" depart="22.00" type="t_2">
        <route edges="-23044585 23044585 18114190#1 18114190#2 18114190#3 18114190#5 18114190#6 555004050#0 555004050#1 555004050#2 18114068#0 18114068#1 18114068#2 18114068#4 521567461 201690898 551037910#0 551037910#1 551040363 555280304#0 555280304#1 79213579#0 79213579#1 -18113262 -782184072#1 -782184072#0 -86873275#3 -86873275#2 -86873275#1 -86873275#0"/>
    </vehicle>
    <vehicle id="23" depart="23.00" type="t_2">
        <route edges="-23126140#1 -23126140#0 23126140#0 23126140#1 -56967630 19742170#0 19742170#1 19742170#3 19742170#4 103822797 19741951#0 19741951#1 19741951#2 56967627#1 56967627#2 56967627#3 16762934#0 16762934#1 105890964#0 105890964#1 106343357 782184072#0 13857333 105016363#0 105016363#1 58774924#12 58774924#15 554478501#1 5717287#1 5717287#2 19574290#1 19574290#2 19574290#3 106337490#2 106337490#3"/>
    </vehicle>
    <vehicle id="24" depart="24.00" type="t_2">
        <route edges="24443490#0 5717287#2 19574290#1 19574290#2 19574290#3 106337490#2 106337490#3 554478501#1 566784918 5243523#0 5243523#2 53836937 550243739#0 550243739#1 18459823#0 1025248679 156620187"/>
    </vehicle>
    <vehicle id="25" depart="25.00" type="t_1">
        <route edges="13242082#3 13242082#4 13242082#5 13242082#6 13242082#7 58774924#8 58774924#9 58774924#10 58774924#11 58774924#12 58774924#15 554478501#1 566784918 812866213 57966138#0 57966138#1 57966138#2 -57966138#2 -57966138#1"/>
    </vehicle>
    <vehicle id="26" depart="26.00" type="t_1">
        <route edges="-588874973 -544590794#1 -544590794#0 -23044601#2 -23044601#0 23044585 18114190#1 18114190#2 18114190#3 18114190#5 18114190#6 555004050#0 555004050#1 555004050#2 18114068#0 18114068#1 18114068#2 18114068#4 521567461 201690898 551037910#0 551037910#1 551040363 555280304#0 555280304#1 79213579#0"/>
    </vehicle>
    <vehicle id="27" depart="27.00" type="t_2">
        <route edges="26594686#1 42136012#0 19574290#2 19574290#3 106337490#2 106337490#3 751968798#0 751968798#1 751968798#2 751968798#3 751968798#4 751968798#5 751968798#6 27121335 13242013#0 13242013#1 13242013#2 13242013#3 13242013#4 13242013#5 13242013#5-AddedOffRampEdge 79213572 79213570 13242082#1 25415974"/>
    </vehicle>
    <vehicle id="28" depart="28.00" type="t_1">
        <route edges="-260657228 810279143#1 810279137 810279146 810279135 525134550 5243523#2 42704040 525129472#0"/>
    </vehicle>
    <vehicle id="29" depart="29.00" type="t_1">
        <route edges="-260657225#1 -260657225#0 810279143#1 810279137 810279146 810279135 525134550 810218391#0 810218391#1 566784919#0 751968798#0 751968798#1 751968798#2 751968798#3 751968798#4 751968798#5 751968798#6 27121335 13242013#0 13242013#1 13242013#2 13242013#3 13242013#4 13242013#5 13242013#5-AddedOffRampEdge 79213581 -18114068#3 -18114068#1 -18114068#0 18114068#0 18114068#1"/>
    </vehicle>
    <vehicle id="30" depart="30.00" type="t_2">
        <route edges="86873275#0 86873275#1 86873275#2 86873275#3 782184072#0 782184072#1 782184072#2 275157849#0 79213567 13242082#1 25415974 13242013#5 13242013#5-AddedOffRampEdge 79213572 275157850"/>
    </vehicle>
    <vehicle id="31" depart="31.00" type="t_2">
        <route edges="22938695#0 22938695#1 -22938695#1 -22938695#0 18114190#6 42136016#0 42136016#1"/>
    </vehicle>
    <vehicle id="32" depart="32.00" type="t_1">
        <route edges="58774924#6 13242013#0 13242013#1 13242013#2 13242013#3 13242013#4 13242013#5 13242013#5-AddedOffRampEdge 79213581 -18114068#3 -18114068#1 -18114068#0 -555004051#1 555004052#0 555004052#1"/>
    </vehicle>
    <vehicle id="33" depart="33.00" type="t_2">
        <route edges="-555004050#0 42136016#0 42136016#1 -141494573#4"/>
    </vehicle>
    <vehicle id="34" depart="34.00" type="t_1">
        <route edges="105890964#0"/>
    </vehicle>
    <vehicle id="35" depart="35.00" type="t_1">
        <route edges="-42136024 42136024 42136019#3 18114190#1 18114190#2 18114190#3 18114190#5 18114190#6 555004050#0 555004050#1 555004050#2 18114068#0 18114068#1 18114068#2 18114068#4 521567461 201690898 551037910#0 551037910#1 551040363 555280304#0 555280304#1 555280303 19741563#0 13242082#0 13242082#1 25415974 13242013#5 13242013#5-AddedOffRampEdge 79213581"/>
    </vehicle>
    <vehicle id="36" depart="36.00" type="t_2">
        <route edges="751968798#5 751968798#6 27121335 13242013#0 13242013#1 13242013#2 13242013#3 13242013#4 13242013#5 13242013#5-AddedOffRampEdge 79213572 79213570 13242082#1 13242082#3 13242082#4"/>
    </vehicle>
    <vehicle id="37" depart="37.00" type="t_2">
        <route edges="275157849#0 275157849#1 19741563#0 19741563#1 19741563#2 79213571 -18114068#4 -18114068#3 -18114068#1 -18114068#0 -555004050#2 -555004050#1 -555004050#0 -18114190#6 -18114190#5 -18114190#3 -18114190#2 18114190#2 18114190#3"/>
    </vehicle>
    <vehicle id="38" depart="38.00" type="t_2">
        <route edges="79213558 19741378 -19741378 -79213558 201690900 555280304#0 555280304#1 79213579#0 79213579#1 -18113262 -782184072#1 -782184072#0 -106343357 -105890964#1 -105890964#0 550273888 19742170#0 19742170#1 19742170#3 19742170#4"/>
    </vehicle>
    <vehicle id="39" depart="39.00" type="t_1">
        <route edges="-588874972 -544590794#0 -23044601#2 -23044601#0 23044585 18114190#1 18114190#2 18114190#3 18114190#5 18114190#6 555004050#0 555004050#1 555004050#2 18114068#0 18114068#1 18114068#2 18114068#4 521567461 201690898 551037910#0 551037910#1 551040363 555280304#0 555280304#1 79213579#0 79213579#1 -18113262 -782184072#1 -782184072#0 -106343357 -105890964#1 -105890964#0 550273888 19742170#0 19742170#1 19742170#3 19742170#4 103822797"/>
    </vehicle>
    <vehicle id="40" depart="40.00" type="t_1">
        <route edges="23044584 81212824 544590792 23044585 18114190#1 18114190#2 18114190#3 18114190#5 18114190#6 555004050#0 555004050#1 555004050#2 18114068#0 18114068#1 18114068#2 18114068#4 521567461 105890958#0 105890958#1"/>
    </vehicle>
    <vehicle id="41" depart="41.00" type="t_2">
        <route edges="23126140#1 -56967630 19742170#0 19742170#1 19742170#3 19742170#4 511458107 23125574 19741492#1 19741492#2 555280304#1 555280303 19741563#0 19741563#1 19741563#2 79213571 -18114068#4 -18114068#3 -18114068#1 -18114068#0 -555004050#2 -555004050#1 -555004050#0 -18114190#6 -18114190#5 -18114190#3 -18114190#2 7962650#1 7962650#2 7962650#3 751968800#8 751968800#9 751968800#10"/>
    </vehicle>
    <vehicle id="43" depart="43.00" type="t_2">
        <route edges="86873275#3 782184072#0 782184072#1 782184072#2 275157849#0 275157849#1 19741563#0 19741563#1 19741563#2 79213571 -18114068#4 -18114068#3 -18114068#1 -18114068#0 -555004050#2 -555004050#1 -555004050#0 -18114190#6 22938695#0 22938695#1"/>
    </vehicle>
    <vehicle id="44" depart="44.00" type="t_2">
        <route edges="-23125578 13242082#4 13242082#5 13242082#6 27288601 13242013#2 13242013#3 13242013#4 13242013#5 13242013#5-AddedOffRampEdge 79213572 275157850 19741563#2 79213571 -18114068#4"/>
    </vehicle>
    <vehicle id="45" depart="45.00" type="t_2">
        <route edges="-23126142#1 -23126142#0 -23126140#2 -56967630 19742170#0 19742170#1 19742170#3 19742170#4 103822797 19741951#0 19741951#1 19741951#2 56967627#1 56967627#2 56967627#3 16762934#0 16762934#1 105890964#0 105890964#1 106343357 782184072#0 13857333 105016363#0 105016363#1 58774924#12 58774924#15 554478501#1 5717287#1 5717287#2 19574290#1 19574290#2 19574290#3 106337490#2 26594686#1"/>
    </vehicle>
    <vehicle id="46" depart="46.00" type="t_2">
        <route edges="56967627#3 16762934#0 16762934#1 105890964#0 105890964#1 106343357 782184072#0 782184072#1 782184072#2 275157849#0 275157849#1 19741563#0 19741563#1 19741563#2 551040366 551037910#0 19741434"/>
    </vehicle>
    <vehicle id="47" depart="47.00" type="t_1">
        <route edges="-19574292#1 -19574292#0 58774924#15 751968798#0 751968798#1 751968798#2 751968798#3 751968798#4 751968798#5 751968798#6 27121335 13242013#0 13242013#1 13242013#2 13242013#3 13242013#4 13242013#5 13242013#5-AddedOffRampEdge 79213581 -18114068#3 -18114068#1 -18114068#0 18114068#0 18114068#1"/>
    </vehicle>
    <vehicle id="48" depart="48.00" type="t_1">
        <route edges="86873275#2 86873275#3 782184072#0 782184072#1 782184072#2 275157849#0 275157849#1 19741563#0 19741563#1 19741563#2 79213571 -18114068#4 -18114068#3 -18114068#1 -18114068#0 -555004050#2 -555004050#1 -555004050#0 -18114190#6 -18114190#5 -18114190#3 -18114190#2 -18114190#1 -23044585 23044601#0 23044601#2"/>
    </vehicle>
    <vehicle id="49" depart="49.00" type="t_2">
        <route edges="810279142#1 810279142#2 18459823#0 18459823#1 18459823#2 5793098#0 5793098#1 810218391#0 810218391#1 566784919#0 751968798#0 751968798#1 751968798#2 751968798#3 751968798#4 751968798#5 751968798#6 27121335 13242013#0 13242013#1 13242013#2 13242013#3 13242013#4 13242013#5 13242013#5-AddedOffRampEdge 79213581 -18114068#3 -18114068#1 -18114068#0 -555004050#2 -555004050#1 -555004050#0 -18114190#6 -18114190#5 -18114190#3 -18114190#2 -18114190#1 -23044585 23044601#0 23044601#2 544590794#0 544590794#1 588874973"/>
    </vehicle>
    <vehicle id="51" depart="51.00" type="t_2">
        <route edges="36843435#1 18459823#2 5793098#0 5793098#1 810218391#0 810218391#1 566784919#0 751968798#0 751968798#1 751968798#2 751968798#3 751968798#4 751968798#5 751968798#6 27121335 13242013#0 13242013#1 13242013#2 13242013#3 13242013#4 13242013#5 13242013#5-AddedOffRampEdge 79213572 79213570 13242082#1 13242082#3 23125578"/>
    </vehicle>
    <vehicle id="52" depart="52.00" type="t_2">
        <route edges="-588874973 -544590794#1 -544590794#0 -23044601#2 -23044601#0 23044585 18114190#1 18114190#2 18114190#3 18114190#5 18114190#6 555004050#0 555004050#1 555004050#2 18114068#0 18114068#1 18114068#2 18114068#4 521567461 201690898 551037910#0 551037910#1 551040363 555280304#0 555280304#1 555280303 19741563#0 13242082#0 13242082#1 25415974 13242013#5 13242013#5-AddedOffRampEdge 79213572 275157850"/>
    </vehicle>
    <vehicle id="53" depart="53.00" type="t_1">
        <route edges="-23126142#2 -23126142#1 -23126142#0 -23126140#2 -56967630 19742170#0 19742170#1 19742170#3 19742170#4 103822797 19741951#0 19741951#1"/>
    </vehicle>
    <vehicle id="55" depart="55.00" type="t_2">
        <route edges="751968798#5 751968798#6 27121335 13242013#0 13242013#1 13242013#2 13242013#3 13242013#4 13242013#5 13242013#5-AddedOffRampEdge 79213572 275157850 19741563#2 551040366 551037910#0 19741434 105890958#1"/>
    </vehicle>
    <vehicle id="56" depart="56.00" type="t_2">
        <route edges="19742147#1 105890964#0 105890964#1 106343357 782184072#0 782184072#1 782184072#2 275157849#0 275157849#1 19741563#0 19741563#1 19741563#2 79213571 -18114068#4 -18114068#3 -18114068#1 -18114068#0 -555004050#2 -555004050#1 -555004050#0 -18114190#6 -18114190#5 -18114190#3 -18114190#2 -18114190#1 -23044585 -544590792"/>
    </vehicle>
    <vehicle id="57" depart="57.00" type="t_2">
        <route edges="782184072#2 -18113262 -782184072#1 13857333 105016363#0 105016363#1 58774924#12 58774924#15 751968798#0 751968798#1 751968798#2 751968798#3 751968798#4 751968798#5 751968798#6 751968798#8 751968798#9 751968798#11"/>
    </vehicle>
    <vehicle id="58" depart="58.00" type="t_2">
        <route edges="105016363#1 58774924#12 58774924#15 751968798#0 751968798#1 751968798#2 751968798#3 751968798#4 751968798#5 751968798#6 27121335 13242013#0 13242013#1 13242013#2 13242013#3 13242013#4 13242013#5 13242013#5-AddedOffRampEdge 79213572 275157850"/>
    </vehicle>
    <vehicle id="59" depart="59.00" type="t_1">
        <route edges="23378906#1 23378906#2 23378906#3 23378906#4 23378906#5 -23378906#5 -23378906#4 -23378906#3 -23378906#2 -23378906#1 751968798#2 751968798#3 751968798#4 -28371868#3 -28371868#2 -28371868#1"/>
    </vehicle>
    <vehicle id="60" depart="60.00" type="t_1">
        <route edges="550273888 19742170#0 19742170#1 19742170#3 19742170#4 511458107 23125574 19741492#1 19741492#2 555280304#1 555280303 19741563#0 13242082#0 13242082#1 23125579"/>
    </vehicle>
    <vehicle id="61" depart="61.00" type="t_2">
        <route edges="555004052#0 -555004052#0 555004051#1 18114068#0 18114068#1 18114068#2 -18114068#3 -18114068#1 -18114068#0 -555004050#2 -555004050#1 -555004050#0 -18114190#6 -18114190#5 -18114190#3 -18114190#2 -18114190#1 -23044585 23044601#0 23044601#2"/>
    </vehicle>
    <vehicle id="63" depart="63.00" type="t_2">
        <route edges="-13857333 782184072#1 782184072#2 275157849#0 79213567 13242082#1 25415974 13242013#5 13242013#5-AddedOffRampEdge 79213572 79213570"/>
    </vehicle>
    <vehicle id="64" depart="64.00" type="t_2">
        <route edges="751968798#6 27121335 13242013#0 13242013#1 13242013#2 13242013#3 13242013#4 13242013#5 13242013#5-AddedOffRampEdge 79213581 -18114068#3 -18114068#1 -18114068#0 -555004050#2 -555004050#1 -555004050#0 13862052#0 13862052#1 58774924#2"/>
    </vehicle>
    <vehicle id="65" depart="65.00" type="t_2">
        <route edges="105890950#3 18114190#1 18114190#2 18114190#3 18114190#5 -18114190#5 -18114190#3"/>
    </vehicle>
    <vehicle id="66" depart="66.00" type="t_2">
        <route edges="751968798#5 751968798#6 27121335 13242013#0 13242013#1 13242013#2 13242013#3 13242013#4 13242013#5 13242013#5-AddedOffRampEdge 79213581 -18114068#3 -18114068#1 -18114068#0 -555004050#2 -555004050#1 -555004050#0 -18114190#6 -18114190#5 -18114190#3 -18114190#2 7962650#1"/>
    </vehicle>
    <vehicle id="67" depart="67.00" type="t_1">
        <route edges="-23044601#2 -23044601#0 23044585 18114190#1 18114190#2 18114190#3 18114190#5 18114190#6 555004050#0 555004050#1 555004050#2 18114068#0 18114068#1 18114068#2 18114068#4 521567461 201690898 551037910#0 551037910#1 551040363 555280304#0 555280304#1 79213579#0 79213579#1 -18113262 -782184072#1 13857333 105016363#0 105016363#1 58774924#12 58774924#15 751968798#0 751968798#1 751968798#2 751968798#3 751968798#4 751968798#5 751968798#6 751968798#8 751968798#9 751968798#11 751968798#12 22890755#1 22890755#4"/>
    </vehicle>
    <vehicle id="68" depart="68.00" type="t_1">
        <route edges="-223032187 223032186 19741951#2 56967627#1 56967627#2 56967627#3 16762934#0 16762934#1 105890964#0 105890964#1 106343357 782184072#0 13857333 105016363#0 105016363#1 58774924#12 58774924#15 554478501#1"/>
    </vehicle>
    <vehicle id="70" depart="70.00" type="t_1">
        <route edges="19741434 105890958#1 19741492#0 19741492#1 79868534 79213579#1 -18113262 -782184072#1 -782184072#0 -106343357 -105890964#1 -105890964#0 550273888 56967630 23126140#2"/>
    </vehicle>
    <vehicle id="71" depart="71.00" type="t_1">
        <route edges="-588874972 -544590794#0 -23044601#2 -23044601#0 23044585 18114190#1 18114190#2 18114190#3 18114190#5 18114190#6 555004050#0 555004050#1 555004050#2 18114068#0 18114068#1 18114068#2 18114068#4 521567461 201690898 551037910#0 551037910#1 551040363 555280304#0 555280304#1 79213579#0 79213579#1 -18113262 -782184072#1 13857333 105016363#0 105016363#1 58774924#12 58774924#15 751968798#0 751968798#1 751968798#2 751968798#3 751968798#4 751968798#5 751968798#6 751968798#8 751968798#9 751968798#11 751968798#12"/>
    </vehicle>
    <vehicle id="72" depart="72.00" type="t_1">
        <route edges="141494573#2 141494573#4 -42136016#1 -42136016#0 555004050#0 555004050#1 555004050#2 18114068#0 18114068#1 18114068#2 18114068#4 521567461 201690898 551037910#0 551037910#1 551040363 555280304#0 555280304#1 79213579#0 79213579#1 -18113262 -782184072#1 13857333 105016363#0 105016363#1 58774924#12 58774924#15 554478501#1 566784918 812866213 57966138#0 57966138#1 57966138#2 -57966138#2"/>
    </vehicle>
    <vehicle id="74" depart="74.00" type="t_2">
        <route edges="-42136016#0 555004050#0 555004050#1 555004050#2 18114068#0 18114068#1 18114068#2 18114068#4 521567461 201690898 551037910#0 551037910#1 551040363 555280304#0 555280304#1 555280303 19741563#0 13242082#0 13242082#1 13242082#3"/>
    </vehicle>
    <vehicle id="75" depart="75.00" type="t_1">
        <route edges="86873275#2 86873275#3 782184072#0 13857333 105016363#0 105016363#1 58774924#12 58774924#15 751968798#0 751968798#1 751968798#2 751968798#3 751968798#4 -28371868#3 -28371868#2 -28371868#1 -28371868#0 28371868#0 28371868#1 28371868#2"/>
    </vehicle>
    <vehicle id="78" depart="78.00" type="t_1">
        <route edges="106338588#0 7962787 810279146 810279135 525134550 810218391#0 810218391#1 566784919#0 751968798#0 751968798#1 23378906#1 23378906#2 23378906#3 23378906#4 23378906#5"/>
    </vehicle>
    <vehicle id="79" depart="79.00" type="t_2">
        <route edges="-555004050#0 555004050#0 555004050#1 555004050#2 18114068#0 18114068#1 18114068#2 18114068#4 521567461 201690898 551037910#0 551037910#1 551040363 555280304#0 555280304#1 79213579#0 79213579#1 -18113262 -782184072#1"/>
    </vehicle>
    <vehicle id="80" depart="80.00" type="t_2">
        <route edges="-22891221 22891220#2 22891220#3 -555004050#2 -555004050#1 555004050#1 555004050#2 18114068#0 18114068#1 18114068#2 18114068#4 521567461 201690898 551037910#0 551037910#1 551040363 555280304#0 555280304#1 79213579#0 79213579#1 -18113262 -782184072#1 13857333 105016363#0 105016363#1 58774924#12 58774924#15 751968798#0 751968798#1 751968798#2 751968798#3 751968798#4 751968798#5 751968798#6 27121335"/>
    </vehicle>
    <vehicle id="81" depart="81.00" type="t_2">
        <route edges="-555004050#0 -18114190#6 -18114190#5 -18114190#3 -18114190#2 7962650#1 7962650#2 7962650#3 751968800#8"/>
    </vehicle>
    <vehicle id="82" depart="82.00" type="t_2">
        <route edges="751968798#1 751968798#2 751968798#3 751968798#4 751968798#5 751968798#6 27121335 13242013#0 13242013#1 13242013#2 13242013#3 13242013#4 13242013#5 13242013#5-AddedOffRampEdge 79213572 275157850 19741563#2 551040366 551037910#0 551037910#1 551040363 555280304#0 555280304#1 79213579#0 79213579#1 -18113262 -782184072#1 -782184072#0 -106343357 -105890964#1 -105890964#0 550273888 19742170#0 19742170#1 19742170#3 -223032187"/>
    </vehicle>
    <vehicle id="83" depart="83.00" type="t_2">
        <route edges="-555004051#1 555004051#1 18114068#0 18114068#1 18114068#2 18114068#4 521567461 201690898 551037910#0 551037910#1 551040363 555280304#0 555280304#1 555280303 19741563#0 13242082#0 13242082#1 13242082#3 13242082#4 13242082#5 -23126153#2 42136013#1"/>
    </vehicle>
    <vehicle id="85" depart="85.00" type="t_1">
        <route edges="79213581 -18114068#3 -18114068#1 -18114068#0 -555004050#2 -555004050#1 23173051#0"/>
    </vehicle>
    <vehicle id="86" depart="86.00" type="t_2">
        <route edges="19574292#0 19574292#1 -19574292#1 -19574292#0 58774924#15 751968798#0 751968798#1 751968798#2 751968798#3 751968798#4 751968798#5 751968798#6 27121335 13242013#0 13242013#1 13242013#2 13242013#3 13242013#4 13242013#5 13242013#5-AddedOffRampEdge 79213572 275157850 19741563#2 551040366 551037910#0 551037910#1 551040363 555280304#0 555280304#1 79213579#0 79213579#1 -18113262 -782184072#1 -782184072#0 -106343357 -105890964#1 -105890964#0 550273888 19742170#0 19742170#1 19742170#3 19742170#4 103822797 19741951#0 19741951#1 19741951#2 56967627#1"/>
    </vehicle>
    <vehicle id="87" depart="87.00" type="t_1">
        <route edges="5793098#1 810218391#0 810218391#1 566784919#0 751968798#0 751968798#1 751968798#2 751968798#3 751968798#4 751968798#5 751968798#6 27121335 13242013#0 13242013#1 13242013#2 13242013#3 13242013#4 13242013#5 13242013#5-AddedOffRampEdge 79213581 -18114068#3 -18114068#1 -18114068#0 -555004050#2 -555004050#1"/>
    </vehicle>
    <vehicle id="88" depart="88.00" type="t_1">
        <route edges="-23126140#0 23126140#0 23126140#1 -56967630 19742170#0 19742170#1 19742170#3 19742170#4 511458107 23125574 19741492#1 19741492#2"/>
    </vehicle>
    <vehicle id="89" depart="89.00" type="t_1">
        <route edges="141494573#2 141494573#4 -42136016#1 -42136016#0 555004050#0 555004050#1 555004050#2 18114068#0 18114068#1 18114068#2 18114068#4 521567461 201690898 551037910#0 551037910#1 551040363 555280304#0 555280304#1 79213579#0 79213579#1 -18113262 -782184072#1 13857333 105016363#0 105016363#1 58774924#12 19793314#2 19793314#3 19793314#4"/>
    </vehicle>
    <vehicle id="90" depart="90.00" type="t_2">
        <route edges="511458108 -511458108 23125574 19741492#1 19741492#2 555280304#1 555280303 19741563#0 13242082#0 13242082#1 13242082#3 13242082#4 13242082#5 -23126153#2 -23126153#1 42136014"/>
    </vehicle>
    <vehicle id="91" depart="91.00" type="t_2">
        <route edges="81212824 544590792 23044585 18114190#1 18114190#2 18114190#3 18114190#5 18114190#6 555004050#0 555004050#1 555004050#2 18114068#0 18114068#1 18114068#2 18114068#4 521567461 201690898 551037910#0 551037910#1 551040363 555280304#0 555280304#1 79213579#0 79213579#1 -18113262 -782184072#1 -782184072#0 -106343357 -105890964#1 -105890964#0 550273888 56967630 23126140#2 23126140#3 23126142#1 23126142#2 -23126142#2 -23126142#1 -23126142#0 -23126140#2"/>
    </vehicle>
    <vehicle id="93" depart="93.00" type="t_2">
        <route edges="751968798#11 751968798#12 22890755#1 42136019#1 42136019#2 42136019#3 18114190#1 18114190#2 18114190#3 18114190#5 18114190#6 555004050#0 555004050#1 555004050#2 18114068#0 18114068#1 18114068#2 18114068#4 521567461 201690898 551037910#0 551037910#1 551040363 555280304#0 555280304#1 79213579#0 79213579#1 -18113262 -782184072#1 13857333 105016363#0"/>
    </vehicle>
    <vehicle id="94" depart="94.00" type="t_2">