<?xml version="1.0" encoding="UTF-8"?>

<!-- generated on 2022-10-18 15:10:42 by Eclipse SUMO netedit Version 1.14.1
<configuration xmlns:xsi="http://www.w3.org/2001/XMLSchema-instance" xsi:noNamespaceSchemaLocation="http://sumo.dlr.de/xsd/netconvertConfiguration.xsd">

    <input>
        <sumo-net-file value="/home/simone/Desktop/SUMO%20Def/../SUMO%20Def/001.net.xml"/>
    </input>

    <output>
        <output-file value="/home/simone/Desktop/SUMO%20Def/../SUMO%20Def/001.net.xml"/>
    </output>

    <processing>
        <geometry.min-radius.fix.railways value="false"/>
        <geometry.max-grade.fix value="false"/>
        <offset.disable-normalization value="true"/>
        <lefthand value="false"/>
    </processing>

    <junctions>
        <no-turnarounds value="true"/>
        <junctions.corner-detail value="5"/>
        <junctions.limit-turn-speed value="5.5"/>
        <rectangular-lane-cut value="false"/>
    </junctions>

    <pedestrian>
        <walkingareas value="false"/>
    </pedestrian>

</configuration>
-->

<net version="1.9" junctionCornerDetail="5" limitTurnSpeed="5.50" xmlns:xsi="http://www.w3.org/2001/XMLSchema-instance" xsi:noNamespaceSchemaLocation="http://sumo.dlr.de/xsd/net_file.xsd">

    <location netOffset="0.00,0.00" convBoundary="-278.04,-11.49,366.70,197.32" origBoundary="-10000000000.00,-10000000000.00,10000000000.00,10000000000.00" projParameter="!"/>

    <edge id=":E1_0" function="internal">
        <lane id=":E1_0_0" index="0" disallow="pedestrian" speed="13.89" length="0.29" shape="-133.35,101.60 -133.64,101.60"/>
    </edge>
    <edge id=":E1_1" function="internal">
        <lane id=":E1_1_0" index="0" disallow="pedestrian" speed="13.89" length="0.31" shape="-133.66,98.40 -133.35,98.40"/>
    </edge>
    <edge id=":J26_0" function="internal">
        <lane id=":J26_0_0" index="0" speed="7.12" length="9.48" shape="16.35,135.57 14.34,136.33 12.89,137.80 12.01,139.99 11.70,142.89"/>
        <lane id=":J26_0_1" index="1" speed="7.86" length="11.73" shape="16.35,135.57 12.94,136.54 10.49,138.07 9.01,140.18 8.50,142.85"/>
    </edge>
    <edge id=":J26_2" function="internal">
        <lane id=":J26_2_0" index="0" speed="11.83" length="13.28" shape="16.35,135.57 11.87,136.17 8.21,136.27 5.37,135.86 3.34,134.93"/>
    </edge>
    <edge id=":J27_0" function="internal">
        <lane id=":J27_0_0" index="0" disallow="pedestrian" speed="5.98" length="6.17" shape="50.72,102.85 49.66,103.16 48.76,104.04 48.00,105.52 47.40,107.58"/>
    </edge>
    <edge id=":J27_1" function="internal">
        <lane id=":J27_1_0" index="0" disallow="pedestrian" speed="6.16" length="6.24" shape="46.91,95.09 47.68,97.09 48.56,98.50 49.55,99.35 50.65,99.61"/>
    </edge>
    <edge id=":J27_2" function="internal">
        <lane id=":J27_2_0" index="0" speed="13.89" length="12.67" shape="46.91,95.09 47.77,98.37 48.12,101.30 47.99,104.24 47.40,107.58"/>
    </edge>
    <edge id=":J28_0" function="internal">
        <lane id=":J28_0_0" index="0" speed="8.35" length="9.11" shape="3.79,71.28 4.97,70.14 5.81,68.37 6.31,65.96 6.47,62.91"/>
        <lane id=":J28_0_1" index="1" speed="9.01" length="10.70" shape="3.79,71.28 6.37,69.42 8.21,67.40 9.31,65.23 9.67,62.90"/>
    </edge>
    <edge id=":J28_2" function="internal">
        <lane id=":J28_2_0" index="0" speed="9.81" length="10.98" shape="3.79,71.28 7.18,69.40 10.01,68.21 12.28,67.73 13.98,67.94"/>
    </edge>
    <edge id=":J29_0" function="internal">
        <lane id=":J29_0_0" index="0" disallow="pedestrian" speed="6.06" length="6.30" shape="-17.59,106.07 -18.24,104.02 -19.06,102.56 -20.03,101.69 -21.16,101.40"/>
    </edge>
    <edge id=":J29_1" function="internal">
        <lane id=":J29_1_0" index="0" speed="13.89" length="12.75" shape="-17.59,106.07 -18.27,102.74 -18.52,99.77 -18.36,96.80 -17.80,93.45"/>
    </edge>
    <edge id=":J29_2" function="internal">
        <lane id=":J29_2_0" index="0" disallow="pedestrian" speed="5.96" length="6.25" shape="-21.17,98.20 -20.06,97.90 -19.13,97.01 -18.38,95.52 -17.80,93.45"/>
    </edge>
    <edge id=":J4_0" function="internal">
        <lane id=":J4_0_0" index="0" disallow="pedestrian" speed="6.01" length="7.52" shape="264.25,102.65 262.67,103.01 261.54,104.06 260.86,105.82 260.62,108.27"/>
    </edge>
    <edge id=":J4_1" function="internal">
        <lane id=":J4_1_0" index="0" disallow="pedestrian" speed="13.89" length="10.42" shape="264.25,102.65 253.83,102.65"/>
    </edge>
    <edge id=":J4_2" function="internal">
        <lane id=":J4_2_0" index="0" disallow="pedestrian" speed="7.40" length="3.16" shape="264.25,102.65 261.75,101.80 261.38,101.43"/>
    </edge>
    <edge id=":J4_12" function="internal">
        <lane id=":J4_12_0" index="0" disallow="pedestrian" speed="7.40" length="8.81" shape="261.38,101.43 259.57,99.64 258.03,96.78 257.44,93.83"/>
    </edge>
    <edge id=":J4_3" function="internal">
        <lane id=":J4_3_0" index="0" disallow="pedestrian" speed="6.00" length="7.52" shape="260.64,93.82 260.87,96.29 261.54,98.05 262.67,99.10 264.25,99.45"/>
    </edge>
    <edge id=":J4_4" function="internal">
        <lane id=":J4_4_0" index="0" speed="13.89" length="14.45" shape="260.64,93.82 260.62,108.27"/>
    </edge>
    <edge id=":J4_5" function="internal">
        <lane id=":J4_5_0" index="0" disallow="pedestrian" speed="7.39" length="4.47" shape="260.64,93.82 260.06,96.77 259.36,98.06"/>
    </edge>
    <edge id=":J4_13" function="internal">
        <lane id=":J4_13_0" index="0" disallow="pedestrian" speed="7.39" length="7.50" shape="259.36,98.06 258.52,99.63 256.34,101.80 253.83,102.65"/>
    </edge>
    <edge id=":J4_6" function="internal">
        <lane id=":J4_6_0" index="0" disallow="pedestrian" speed="5.97" length="7.49" shape="253.84,99.42 255.42,99.08 256.54,98.03 257.22,96.29 257.44,93.83"/>
    </edge>
    <edge id=":J4_7" function="internal">
        <lane id=":J4_7_0" index="0" disallow="pedestrian" speed="13.89" length="10.41" shape="253.84,99.42 264.25,99.45"/>
    </edge>
    <edge id=":J4_8" function="internal">
        <lane id=":J4_8_0" index="0" disallow="pedestrian" speed="7.41" length="3.17" shape="253.84,99.42 256.34,100.29 256.71,100.66"/>
    </edge>
    <edge id=":J4_14" function="internal">
        <lane id=":J4_14_0" index="0" disallow="pedestrian" speed="7.41" length="8.80" shape="256.71,100.66 258.51,102.46 260.05,105.32 260.62,108.27"/>
    </edge>
    <edge id=":J4_9" function="internal">
        <lane id=":J4_9_0" index="0" disallow="pedestrian" speed="5.99" length="7.50" shape="257.42,108.26 257.21,105.81 256.54,104.06 255.41,103.01 253.83,102.65"/>
    </edge>
    <edge id=":J4_10" function="internal">
        <lane id=":J4_10_0" index="0" speed="13.89" length="14.43" shape="257.42,108.26 257.44,93.83"/>
    </edge>
    <edge id=":J4_11" function="internal">
        <lane id=":J4_11_0" index="0" disallow="pedestrian" speed="7.41" length="4.41" shape="257.42,108.26 258.02,105.32 258.69,104.08"/>
    </edge>
    <edge id=":J4_15" function="internal">
        <lane id=":J4_15_0" index="0" disallow="pedestrian" speed="7.41" length="7.55" shape="258.69,104.08 259.57,102.47 261.75,100.31 264.25,99.45"/>
    </edge>

    <edge id="-E0" from="E1" to="E0" priority="-1">
        <lane id="-E0_0" index="0" allow="pedestrian" speed="13.89" length="144.39" width="2.00" shape="-133.63,104.20 -278.02,104.99"/>
        <lane id="-E0_1" index="1" disallow="pedestrian" speed="13.89" length="144.39" shape="-133.64,101.60 -278.03,102.39"/>
    </edge>
    <edge id="-E1" from="J29" to="E1" priority="-1">
        <lane id="-E1_0" index="0" allow="pedestrian" speed="13.89" length="112.19" width="2.00" shape="-21.16,104.00 -133.34,104.20"/>
        <lane id="-E1_1" index="1" disallow="pedestrian" speed="13.89" length="112.19" shape="-21.16,101.40 -133.35,101.60"/>
    </edge>
    <edge id="-E2" from="J4" to="J27" priority="-1" shape="259.05,101.06 102.79,100.87 47.17,101.28">
        <lane id="-E2_0" index="0" allow="pedestrian" speed="13.89" length="203.09" width="2.00" shape="253.83,105.25 102.80,105.07 50.77,105.45"/>
        <lane id="-E2_1" index="1" disallow="pedestrian" speed="13.89" length="203.09" shape="253.83,102.65 102.79,102.47 50.72,102.85"/>
    </edge>
    <edge id="-E3" from="E3" to="J4" priority="-1">
        <lane id="-E3_0" index="0" allow="pedestrian" speed="13.89" length="102.45" width="2.00" shape="366.71,105.09 264.26,105.25"/>
        <lane id="-E3_1" index="1" disallow="pedestrian" speed="13.89" length="102.45" shape="366.70,102.49 264.25,102.65"/>
    </edge>
    <edge id="-E4" from="E2.2" to="J4" priority="-1">
        <lane id="-E4_0" index="0" speed="13.89" length="59.85" shape="257.21,168.11 257.42,108.26"/>
    </edge>
    <edge id="-E5" from="E2.1" to="J4" priority="-1">
        <lane id="-E5_0" index="0" speed="13.89" length="61.67" shape="260.53,32.16 260.64,93.82"/>
    </edge>
    <edge id="E0" from="E0" to="E1" priority="-1">
        <lane id="E0_0" index="0" allow="pedestrian" speed="13.89" length="144.39" width="2.00" shape="-278.06,96.59 -133.67,95.80"/>
        <lane id="E0_1" index="1" disallow="pedestrian" speed="13.89" length="144.39" shape="-278.05,99.19 -133.66,98.40"/>
    </edge>
    <edge id="E1" from="E1" to="J29" priority="-1">
        <lane id="E1_0" index="0" allow="pedestrian" speed="13.89" length="112.19" width="2.00" shape="-133.36,95.80 -21.17,95.60"/>
        <lane id="E1_1" index="1" disallow="pedestrian" speed="13.89" length="112.19" shape="-133.35,98.40 -21.17,98.20"/>
    </edge>
    <edge id="E1.1" from="J28" to="E1.1" priority="-1" shape="11.29,68.60 11.22,45.49 11.62,-11.49">
        <lane id="E1.1_0" index="0" speed="13.89" length="74.42" shape="6.47,62.91 6.42,45.48 6.82,-11.52"/>
        <lane id="E1.1_1" index="1" speed="13.89" length="74.42" shape="9.67,62.90 9.62,45.49 10.02,-11.50"/>
    </edge>
    <edge id="E1.2" from="J26" to="E1.2" priority="-1">
        <lane id="E1.2_0" index="0" speed="13.89" length="54.48" shape="11.70,142.89 11.15,197.37"/>
        <lane id="E1.2_1" index="1" speed="13.89" length="54.48" shape="8.50,142.85 7.95,197.34"/>
    </edge>
    <edge id="E2" from="J27" to="J4" priority="-1" shape="47.17,101.28 86.99,100.50 124.42,100.10 141.48,100.06 259.05,101.06">
        <lane id="E2_0" index="0" allow="pedestrian" speed="13.89" length="203.22" width="2.00" shape="50.60,97.01 86.93,96.30 124.39,95.90 141.49,95.86 253.84,96.82"/>
        <lane id="E2_1" index="1" disallow="pedestrian" speed="13.89" length="203.22" shape="50.65,99.61 86.97,98.90 124.41,98.50 141.48,98.46 253.84,99.42"/>
    </edge>
    <edge id="E23" from="J27" to="J26" priority="-1" shape="47.17,101.28 43.09,119.49 26.49,132.17 6.97,135.59">
        <lane id="E23_0" index="0" speed="13.89" length="45.98" shape="47.40,107.58 44.52,120.41 27.15,133.68 16.35,135.57"/>
    </edge>
    <edge id="E24" from="J28" to="J27" priority="-1" shape="11.29,68.60 26.88,74.72 42.03,84.89 47.17,101.28">
        <lane id="E24_0" index="0" speed="13.89" length="45.40" shape="13.98,67.94 27.63,73.29 43.39,83.87 46.91,95.09"/>
    </edge>
    <edge id="E25" from="J29" to="J28" priority="-1" shape="-17.48,99.79 -14.23,84.09 11.29,68.60">
        <lane id="E25_0" index="0" speed="13.89" length="33.33" shape="-17.80,93.45 -15.66,83.08 3.79,71.28"/>
    </edge>
    <edge id="E26" from="J26" to="J29" priority="-1" shape="6.97,135.59 -12.11,121.77 -17.48,99.79">
        <lane id="E26_0" index="0" speed="13.89" length="37.96" shape="3.34,134.93 -13.52,122.72 -17.59,106.07"/>
    </edge>
    <edge id="E3" from="J4" to="E3" priority="-1">
        <lane id="E3_0" index="0" allow="pedestrian" speed="13.89" length="102.45" width="2.00" shape="264.24,96.85 366.69,96.69"/>
        <lane id="E3_1" index="1" disallow="pedestrian" speed="13.89" length="102.45" shape="264.25,99.45 366.70,99.29"/>
    </edge>
    <edge id="E4" from="J4" to="E2.2" priority="-1">
        <lane id="E4_0" index="0" speed="13.89" length="59.85" shape="260.62,108.27 260.41,168.13"/>
    </edge>
    <edge id="E5" from="J4" to="E2.1" priority="-1">
        <lane id="E5_0" index="0" speed="13.89" length="61.67" shape="257.44,93.83 257.33,32.16"/>
    </edge>
    
    <tlLogic id="J4" type="static" programID="0" offset="0">
        <phase duration="42" state="rrrGGgrrrGGg"/>
        <phase duration="3"  state="rrryyyrrryyy"/>
        <phase duration="42" state="GGgrrrGGgrrr"/>
        <phase duration="3"  state="yyyrrryyyrrr"/>
    </tlLogic>
    <!--
    <tlLogic id="J4" type="static" programID="0" offset="0">
        <phase duration="31" state="GGggrrrrGGggrrrr"/>
        <phase duration="5"  state="yyggrrrryyggrrrr"/>
        <phase duration="6"  state="rrGGrrrrrrGGrrrr"/>
        <phase duration="5"  state="rryyrrrrrryyrrrr"/>
        <phase duration="31" state="rrrrGGggrrrrGGgg"/>
        <phase duration="5"  state="rrrryyggrrrryygg"/>
        <phase duration="6"  state="rrrrrrGGrrrrrrGG"/>
        <phase duration="5"  state="rrrrrryyrrrrrryy"/>
    </tlLogic>
    -->
    <junction id="E0" type="dead_end" x="-278.04" y="100.79" incLanes="-E0_0 -E0_1" intLanes="" shape="-278.04,100.79 -278.01,105.99 -278.04,100.79"/>
    <junction id="E1" type="priority" x="-133.50" y="100.00" incLanes="-E1_0 -E1_1 E0_0 E0_1" intLanes=":E1_0_0 :E1_1_0" shape="-133.34,105.20 -133.36,94.80 -133.68,94.80 -133.62,105.20">
        <request index="0" response="00" foes="00" cont="0"/>
        <request index="1" response="00" foes="00" cont="0"/>
    </junction>
    <junction id="E1.1" type="dead_end" x="11.62" y="-11.49" incLanes="E1.1_0 E1.1_1" intLanes="" shape="5.22,-11.53 11.62,-11.49"/>
    <junction id="E1.2" type="dead_end" x="6.35" y="197.32" incLanes="E1.2_0 E1.2_1" intLanes="" shape="12.75,197.38 6.35,197.32"/>
    <junction id="E2.1" type="dead_end" x="258.93" y="32.16" incLanes="E5_0" intLanes="" shape="258.93,32.16 255.73,32.17 258.93,32.16"/>
    <junction id="E2.2" type="dead_end" x="258.81" y="168.12" incLanes="E4_0" intLanes="" shape="258.81,168.12 262.01,168.13 258.81,168.12"/>
    <junction id="E3" type="dead_end" x="366.70" y="100.89" incLanes="E3_0 E3_1" intLanes="" shape="366.70,100.89 366.69,95.69 366.70,100.89"/>
    <junction id="J26" type="priority" x="6.97" y="135.59" incLanes="E23_0" intLanes=":J26_0_0 :J26_0_1 :J26_2_0" shape="16.63,137.15 16.07,134.00 13.22,134.43 10.72,134.66 8.57,134.70 6.78,134.55 5.35,134.19 4.28,133.64 2.40,136.23 4.91,138.42 5.79,139.52 6.41,140.63 6.78,141.73 6.90,142.84 13.30,142.90 13.69,139.96 14.15,138.87 14.80,138.04 15.62,137.47">
        <request index="0" response="000" foes="000" cont="0"/>
        <request index="1" response="000" foes="000" cont="0"/>
        <request index="2" response="000" foes="000" cont="0"/>
    </junction>
    <junction id="J27" type="priority" x="47.17" y="101.28" incLanes="-E2_0 -E2_1 E24_0" intLanes=":J27_0_0 :J27_1_0 :J27_2_0" shape="50.79,106.45 50.58,96.01 49.59,95.87 49.20,95.68 48.87,95.41 48.62,95.05 48.43,94.61 45.38,95.57 46.11,97.97 46.56,99.80 46.74,101.35 46.67,102.91 46.37,104.78 45.84,107.23 48.96,107.93 49.31,107.11 49.58,106.83 49.92,106.62 50.32,106.50">
        <request index="0" response="100" foes="100" cont="0"/>
        <request index="1" response="000" foes="000" cont="0"/>
        <request index="2" response="000" foes="001" cont="0"/>
    </junction>
    <junction id="J28" type="priority" x="11.29" y="68.60" incLanes="E25_0" intLanes=":J28_0_0 :J28_0_1 :J28_2_0" shape="13.39,69.43 14.56,66.45 12.74,65.48 12.10,64.92 11.64,64.30 11.37,63.63 11.27,62.90 4.87,62.92 4.67,66.28 4.40,67.58 4.03,68.62 3.55,69.39 2.96,69.91 4.62,72.65 6.72,71.43 8.56,70.49 10.15,69.82 11.48,69.42 12.57,69.29">
        <request index="0" response="000" foes="000" cont="0"/>
        <request index="1" response="000" foes="000" cont="0"/>
        <request index="2" response="000" foes="000" cont="0"/>
    </junction>
    <junction id="J29" type="priority" x="-17.48" y="99.79" incLanes="E26_0 E1_0 E1_1" intLanes=":J29_0_0 :J29_1_0 :J29_2_0" shape="-19.15,106.45 -16.04,105.69 -16.63,103.20 -16.99,101.33 -17.12,99.75 -17.03,98.17 -16.74,96.28 -16.23,93.77 -19.37,93.13 -19.70,93.94 -19.97,94.23 -20.31,94.43 -20.71,94.56 -21.17,94.60 -21.15,105.00 -20.20,105.16 -19.83,105.36 -19.53,105.64 -19.30,106.01">
        <request index="0" response="000" foes="000" cont="0"/>
        <request index="1" response="000" foes="100" cont="0"/>
        <request index="2" response="010" foes="010" cont="0"/>
    </junction>
    <junction id="J4" type="traffic_light" x="259.05" y="101.06" incLanes="-E3_0 -E3_1 -E5_0 E2_0 E2_1 -E4_0" intLanes=":J4_0_0 :J4_1_0 :J4_12_0 :J4_3_0 :J4_4_0 :J4_13_0 :J4_6_0 :J4_7_0 :J4_14_0 :J4_9_0 :J4_10_0 :J4_15_0" shape="264.26,106.25 264.24,95.85 263.13,95.63 262.74,95.35 262.46,94.95 262.29,94.44 262.24,93.82 255.84,93.83 255.62,94.94 255.34,95.33 254.95,95.60 254.45,95.77 253.84,95.82 253.83,106.25 254.94,106.48 255.33,106.76 255.61,107.14 255.77,107.64 255.82,108.26 262.22,108.28 262.45,107.15 262.74,106.76 263.13,106.48 263.64,106.31">
        <request index="0"  response="000000000000" foes="000100010000" cont="0"/>
        <request index="1"  response="100000100000" foes="111100110000" cont="0"/>
        <request index="2"  response="100011100000" foes="110011110000" cont="1"/>
        <request index="3"  response="000010000000" foes="100010000000" cont="0"/>
        <request index="4"  response="000110000111" foes="100110000111" cont="0"/>
        <request index="5"  response="011110000110" foes="011110000110" cont="1"/>
        <request index="6"  response="000000000000" foes="010000000100" cont="0"/>
        <request index="7"  response="000000100000" foes="110000111100" cont="0"/>
        <request index="8"  response="100000100011" foes="110000110011" cont="1"/>
        <request index="9"  response="000000000010" foes="000000100010" cont="0"/>
        <request index="10" response="000111000110" foes="000111100110" cont="0"/>
        <request index="11" response="000110011110" foes="000110011110" cont="1"/>
    </junction>

    <junction id=":J4_12_0" type="internal" x="261.38" y="101.43" incLanes=":J4_2_0 E2_1" intLanes=":J4_4_0 :J4_5_0 :J4_6_0 :J4_7_0 :J4_10_0 :J4_11_0"/>
    <junction id=":J4_13_0" type="internal" x="259.36" y="98.06" incLanes=":J4_5_0 -E4_0" intLanes=":J4_1_0 :J4_2_0 :J4_7_0 :J4_8_0 :J4_9_0 :J4_10_0"/>
    <junction id=":J4_14_0" type="internal" x="256.71" y="100.66" incLanes=":J4_8_0 -E3_1" intLanes=":J4_0_0 :J4_1_0 :J4_4_0 :J4_5_0 :J4_10_0 :J4_11_0"/>
    <junction id=":J4_15_0" type="internal" x="258.69" y="104.08" incLanes=":J4_11_0 -E5_0 E2_1" intLanes=":J4_1_0 :J4_2_0 :J4_3_0 :J4_4_0 :J4_7_0 :J4_8_0"/>

    <connection from="-E1" to="-E0" fromLane="1" toLane="1" via=":E1_0_0" dir="s" state="M"/>
    <connection from="-E2" to="E23" fromLane="1" toLane="0" via=":J27_0_0" dir="r" state="m" visibility="9.00"/>
    <connection from="-E3" to="E4" fromLane="1" toLane="0" via=":J4_0_0" tl="J4" linkIndex="3" dir="r" state="O"/>
    <connection from="-E3" to="-E2" fromLane="1" toLane="1" via=":J4_1_0" tl="J4" linkIndex="4" dir="s" state="O"/>
    <connection from="-E3" to="E5" fromLane="1" toLane="0" via=":J4_2_0" tl="J4" linkIndex="5" dir="l" state="o"/>
    <connection from="-E4" to="-E2" fromLane="0" toLane="1" via=":J4_9_0" tl="J4" linkIndex="0" dir="r" state="o"/>
    <connection from="-E4" to="E5" fromLane="0" toLane="0" via=":J4_10_0" tl="J4" linkIndex="1" dir="s" state="o"/>
    <connection from="-E4" to="E3" fromLane="0" toLane="1" via=":J4_11_0" tl="J4" linkIndex="2" dir="l" state="o"/>
    <connection from="-E5" to="E3" fromLane="0" toLane="1" via=":J4_3_0" tl="J4" linkIndex="6" dir="r" state="o"/>
    <connection from="-E5" to="E4" fromLane="0" toLane="0" via=":J4_4_0" tl="J4" linkIndex="7" dir="s" state="o"/>
    <connection from="-E5" to="-E2" fromLane="0" toLane="1" via=":J4_5_0" tl="J4" linkIndex="8" dir="l" state="o"/>
    <connection from="E0" to="E1" fromLane="1" toLane="1" via=":E1_1_0" dir="s" state="M"/>
    <connection from="E1" to="E25" fromLane="1" toLane="0" via=":J29_2_0" dir="r" state="m" visibility="9.00"/>
    <connection from="E2" to="E5" fromLane="1" toLane="0" via=":J4_6_0" tl="J4" linkIndex="9" dir="r" state="O"/>
    <connection from="E2" to="E3" fromLane="1" toLane="1" via=":J4_7_0" tl="J4" linkIndex="10" dir="s" state="O"/>
    <connection from="E2" to="E4" fromLane="1" toLane="0" via=":J4_8_0" tl="J4" linkIndex="11" dir="l" state="o"/>
    <connection from="E23" to="E1.2" fromLane="0" toLane="0" via=":J26_0_0" dir="r" state="M"/>
    <connection from="E23" to="E1.2" fromLane="0" toLane="1" via=":J26_0_1" dir="r" state="M"/>
    <connection from="E23" to="E26" fromLane="0" toLane="0" via=":J26_2_0" dir="s" state="M"/>
    <connection from="E24" to="E2" fromLane="0" toLane="1" via=":J27_1_0" dir="r" state="M"/>
    <connection from="E24" to="E23" fromLane="0" toLane="0" via=":J27_2_0" dir="s" state="M"/>
    <connection from="E25" to="E1.1" fromLane="0" toLane="0" via=":J28_0_0" dir="r" state="M"/>
    <connection from="E25" to="E1.1" fromLane="0" toLane="1" via=":J28_0_1" dir="r" state="M"/>
    <connection from="E25" to="E24" fromLane="0" toLane="0" via=":J28_2_0" dir="s" state="M"/>
    <connection from="E26" to="-E1" fromLane="0" toLane="1" via=":J29_0_0" dir="r" state="M"/>
    <connection from="E26" to="E25" fromLane="0" toLane="0" via=":J29_1_0" dir="s" state="M"/>

    <connection from=":E1_0" to="-E0" fromLane="0" toLane="1" dir="s" state="M"/>
    <connection from=":E1_1" to="E1" fromLane="0" toLane="1" dir="s" state="M"/>
    <connection from=":J26_0" to="E1.2" fromLane="0" toLane="0" dir="r" state="M"/>
    <connection from=":J26_0" to="E1.2" fromLane="1" toLane="1" dir="r" state="M"/>
    <connection from=":J26_2" to="E26" fromLane="0" toLane="0" dir="s" state="M"/>
    <connection from=":J27_0" to="E23" fromLane="0" toLane="0" dir="r" state="M"/>
    <connection from=":J27_1" to="E2" fromLane="0" toLane="1" dir="r" state="M"/>
    <connection from=":J27_2" to="E23" fromLane="0" toLane="0" dir="s" state="M"/>
    <connection from=":J28_0" to="E1.1" fromLane="0" toLane="0" dir="r" state="M"/>
    <connection from=":J28_0" to="E1.1" fromLane="1" toLane="1" dir="r" state="M"/>
    <connection from=":J28_2" to="E24" fromLane="0" toLane="0" dir="s" state="M"/>
    <connection from=":J29_0" to="-E1" fromLane="0" toLane="1" dir="r" state="M"/>
    <connection from=":J29_1" to="E25" fromLane="0" toLane="0" dir="s" state="M"/>
    <connection from=":J29_2" to="E25" fromLane="0" toLane="0" dir="r" state="M"/>
    <connection from=":J4_0" to="E4" fromLane="0" toLane="0" dir="r" state="M"/>
    <connection from=":J4_1" to="-E2" fromLane="0" toLane="1" dir="s" state="M"/>
    <connection from=":J4_2" to="E5" fromLane="0" toLane="0" via=":J4_12_0" dir="l" state="m"/>
    <connection from=":J4_12" to="E5" fromLane="0" toLane="0" dir="l" state="M"/>
    <connection from=":J4_3" to="E3" fromLane="0" toLane="1" dir="r" state="M"/>
    <connection from=":J4_4" to="E4" fromLane="0" toLane="0" dir="s" state="M"/>
    <connection from=":J4_5" to="-E2" fromLane="0" toLane="1" via=":J4_13_0" dir="l" state="m"/>
    <connection from=":J4_13" to="-E2" fromLane="0" toLane="1" dir="l" state="M"/>
    <connection from=":J4_6" to="E5" fromLane="0" toLane="0" dir="r" state="M"/>
    <connection from=":J4_7" to="E3" fromLane="0" toLane="1" dir="s" state="M"/>
    <connection from=":J4_8" to="E4" fromLane="0" toLane="0" via=":J4_14_0" dir="l" state="m"/>
    <connection from=":J4_14" to="E4" fromLane="0" toLane="0" dir="l" state="M"/>
    <connection from=":J4_9" to="-E2" fromLane="0" toLane="1" dir="r" state="M"/>
    <connection from=":J4_10" to="E5" fromLane="0" toLane="0" dir="s" state="M"/>
    <connection from=":J4_11" to="E3" fromLane="0" toLane="1" via=":J4_15_0" dir="l" state="m"/>
    <connection from=":J4_15" to="E3" fromLane="0" toLane="1" dir="l" state="M"/>

    <roundabout nodes="J26 J27 J28 J29" edges="E23 E24 E25 E26"/>

</net>
